MODEL 1
REMARK VINA RESULT:     -11.5      0.000      0.000
REMARK  14 active torsions:
REMARK  status: ('A' for Active; 'I' for Inactive)
REMARK    1  A    between atoms: N1_1  and  C31_43 
REMARK    2  A    between atoms: C2_3  and  C3_4 
REMARK       I    between atoms: C3_4  and  N2_6 
REMARK    3  A    between atoms: N2_6  and  C4_8 
REMARK    4  A    between atoms: N3_12  and  C10_15 
REMARK    5  A    between atoms: C10_15  and  C11_16 
REMARK    6  A    between atoms: C11_16  and  O2_17 
REMARK    7  A    between atoms: C11_16  and  C12_19 
REMARK    8  A    between atoms: C12_19  and  C13_20 
REMARK    9  A    between atoms: C13_20  and  C21_28 
REMARK   10  A    between atoms: C13_20  and  C14_21 
REMARK   11  A    between atoms: C14_21  and  C15_22 
REMARK       I    between atoms: C21_28  and  N4_30 
REMARK   12  A    between atoms: N4_30  and  C22_32 
REMARK   13  A    between atoms: C23_33  and  O4_34 
REMARK   14  A    between atoms: C31_43  and  C32_44 
ROOT
HETATM    1  N1  MK1 B 902       9.194  24.200   3.051  1.00 28.25     0.096 N 
HETATM    2  C1  MK1 B 902       9.450  24.336   4.510  1.00 30.30     0.307 C 
HETATM    3  C2  MK1 B 902      10.637  25.121   5.033  1.00 27.27     0.200 C 
HETATM    4  N3  MK1 B 902      11.788  24.403   4.382  1.00 28.91    -0.395 N 
HETATM    5  C8  MK1 B 902      11.655  23.965   2.969  1.00 26.24     0.148 C 
HETATM    6  C9  MK1 B 902      10.283  23.527   2.499  1.00 27.47     0.292 C 
ENDROOT
BRANCH   1   7
HETATM    7  C31 MK1 B 902       7.881  23.684   2.644  1.00 36.25     0.312 C 
BRANCH   7   8
HETATM    8  C32 MK1 B 902       6.593  24.139   3.341  1.00 42.75    -0.015 A 
HETATM    9  C36 MK1 B 902       5.671  23.171   3.675  1.00 44.71     0.011 A 
HETATM   10  C35 MK1 B 902       4.490  23.580   4.289  1.00 49.34     0.018 A 
HETATM   11  C34 MK1 B 902       4.272  24.937   4.546  1.00 50.60     0.087 A 
HETATM   12  N5  MK1 B 902       5.150  25.976   4.242  1.00 51.38    -0.375 N 
HETATM   13  C33 MK1 B 902       6.312  25.483   3.627  1.00 47.41     0.096 A 
HETATM   14  H5  MK1 B 902       4.972  26.961   4.438  1.00  0.00     0.164 HD
ENDBRANCH   7   8
ENDBRANCH   1   7
BRANCH   3  15
HETATM   15  C3  MK1 B 902      10.650  25.017   6.534  1.00 28.85     0.242 C 
HETATM   16  O1  MK1 B 902      10.780  23.927   7.077  1.00 29.59    -0.271 OA
HETATM   17  N2  MK1 B 902      10.504  26.138   7.212  1.00 22.29    -0.351 N 
HETATM   18  H2  MK1 B 902      10.337  26.966   6.640  1.00  0.00     0.163 HD
BRANCH  17  19
HETATM   19  C4  MK1 B 902      10.541  26.379   8.619  1.00 23.47     0.022 C 
HETATM   20  C7  MK1 B 902       9.587  25.564   9.378  1.00 22.75     0.037 C 
HETATM   21  C5  MK1 B 902      10.073  27.829   8.840  1.00 27.66     0.037 C 
HETATM   22  C6  MK1 B 902      11.796  26.187   9.176  1.00 21.71     0.037 C 
ENDBRANCH  17  19
ENDBRANCH   3  15
BRANCH   4  23
HETATM   23  C10 MK1 B 902      13.117  24.944   4.586  1.00 20.86     0.149 C 
BRANCH  23  24
HETATM   24  C11 MK1 B 902      14.127  23.933   5.131  1.00 21.68     0.136 C 
BRANCH  24  25
HETATM   25  O2  MK1 B 902      15.254  24.636   4.700  1.00 15.87    -0.394 OA
HETATM   26  H2  MK1 B 902      15.548  25.187   5.416  1.00  0.00     0.210 HD
ENDBRANCH  24  25
BRANCH  24  27
HETATM   27  C12 MK1 B 902      14.309  23.613   6.626  1.00 21.49     0.047 C 
BRANCH  27  28
HETATM   28  C13 MK1 B 902      15.456  22.708   7.098  1.00 26.89     0.084 C 
BRANCH  28  29
HETATM   29  C21 MK1 B 902      15.423  21.343   6.421  1.00 29.35     0.222 C 
HETATM   30  N4  MK1 B 902      16.592  20.909   5.957  1.00 31.19    -0.350 N 
HETATM   31  H4  MK1 B 902      17.363  21.569   5.855  1.00  0.00     0.163 HD
HETATM   32  O3  MK1 B 902      14.387  20.661   6.423  1.00 32.66    -0.273 OA
BRANCH  30  33
HETATM   33  C22 MK1 B 902      16.797  19.518   5.591  1.00 29.22     0.147 C 
HETATM   34  C30 MK1 B 902      16.556  19.100   4.116  1.00 31.86    -0.027 A 
HETATM   35  C29 MK1 B 902      15.645  19.471   3.179  1.00 27.70     0.010 A 
HETATM   36  C25 MK1 B 902      17.596  18.037   3.659  1.00 31.29    -0.047 A 
HETATM   37  C28 MK1 B 902      15.654  18.934   1.899  1.00 29.01     0.001 A 
HETATM   38  C27 MK1 B 902      16.605  17.985   1.494  1.00 28.00     0.001 A 
HETATM   39  C26 MK1 B 902      17.587  17.530   2.381  1.00 32.00     0.008 A 
HETATM   40  C24 MK1 B 902      18.435  17.891   4.905  1.00 32.05     0.073 C 
HETATM   41  C23 MK1 B 902      18.230  19.072   5.826  1.00 28.82     0.149 C 
BRANCH  41  42
HETATM   42  O4  MK1 B 902      19.125  20.149   5.590  1.00 28.32    -0.393 OA
HETATM   43  H4  MK1 B 902      19.226  20.671   6.377  1.00  0.00     0.210 HD
ENDBRANCH  41  42
ENDBRANCH  30  33
ENDBRANCH  28  29
BRANCH  28  44
HETATM   44  C14 MK1 B 902      15.450  22.507   8.623  1.00 28.67     0.052 C 
BRANCH  44  45
HETATM   45  C15 MK1 B 902      16.596  21.688   9.093  1.00 26.89    -0.057 A 
HETATM   46  C16 MK1 B 902      17.923  22.026   8.821  1.00 29.22     0.007 A 
HETATM   47  C17 MK1 B 902      18.961  21.212   9.248  1.00 29.22     0.001 A 
HETATM   48  C18 MK1 B 902      18.655  20.047   9.954  1.00 30.97     0.000 A 
HETATM   49  C19 MK1 B 902      17.326  19.708  10.236  1.00 29.25     0.001 A 
HETATM   50  C20 MK1 B 902      16.293  20.537   9.800  1.00 29.96     0.007 A 
ENDBRANCH  44  45
ENDBRANCH  28  44
ENDBRANCH  27  28
ENDBRANCH  24  27
ENDBRANCH  23  24
ENDBRANCH   4  23
TORSDOF 14
ENDMDL
MODEL 2
REMARK VINA RESULT:     -10.6      1.346      4.256
REMARK  14 active torsions:
REMARK  status: ('A' for Active; 'I' for Inactive)
REMARK    1  A    between atoms: N1_1  and  C31_43 
REMARK    2  A    between atoms: C2_3  and  C3_4 
REMARK       I    between atoms: C3_4  and  N2_6 
REMARK    3  A    between atoms: N2_6  and  C4_8 
REMARK    4  A    between atoms: N3_12  and  C10_15 
REMARK    5  A    between atoms: C10_15  and  C11_16 
REMARK    6  A    between atoms: C11_16  and  O2_17 
REMARK    7  A    between atoms: C11_16  and  C12_19 
REMARK    8  A    between atoms: C12_19  and  C13_20 
REMARK    9  A    between atoms: C13_20  and  C21_28 
REMARK   10  A    between atoms: C13_20  and  C14_21 
REMARK   11  A    between atoms: C14_21  and  C15_22 
REMARK       I    between atoms: C21_28  and  N4_30 
REMARK   12  A    between atoms: N4_30  and  C22_32 
REMARK   13  A    between atoms: C23_33  and  O4_34 
REMARK   14  A    between atoms: C31_43  and  C32_44 
ROOT
HETATM    1  N1  MK1 B 902       8.915  24.317   2.925  1.00 28.25     0.096 N 
HETATM    2  C1  MK1 B 902       9.121  24.471   4.390  1.00 30.30     0.307 C 
HETATM    3  C2  MK1 B 902      10.316  25.222   4.944  1.00 27.27     0.200 C 
HETATM    4  N3  MK1 B 902      11.463  24.451   4.350  1.00 28.91    -0.395 N 
HETATM    5  C8  MK1 B 902      11.367  23.992   2.942  1.00 26.24     0.148 C 
HETATM    6  C9  MK1 B 902       9.999  23.595   2.427  1.00 27.47     0.292 C 
ENDROOT
BRANCH   1   7
HETATM    7  C31 MK1 B 902       7.601  23.841   2.478  1.00 36.25     0.312 C 
BRANCH   7   8
HETATM    8  C32 MK1 B 902       6.324  24.169   3.261  1.00 42.75    -0.015 A 
HETATM    9  C36 MK1 B 902       5.545  23.113   3.686  1.00 44.71     0.011 A 
HETATM   10  C35 MK1 B 902       4.374  23.405   4.380  1.00 49.34     0.018 A 
HETATM   11  C34 MK1 B 902       4.020  24.736   4.622  1.00 50.60     0.087 A 
HETATM   12  N5  MK1 B 902       4.748  25.858   4.228  1.00 51.38    -0.375 N 
HETATM   13  C33 MK1 B 902       5.911  25.480   3.537  1.00 47.41     0.096 A 
HETATM   14  H5  MK1 B 902       4.473  26.822   4.415  1.00  0.00     0.164 HD
ENDBRANCH   7   8
ENDBRANCH   1   7
BRANCH   3  15
HETATM   15  C3  MK1 B 902      10.269  25.146   6.446  1.00 28.85     0.242 C 
HETATM   16  O1  MK1 B 902      10.254  24.059   7.010  1.00 29.59    -0.271 OA
HETATM   17  N2  MK1 B 902      10.232  26.289   7.102  1.00 22.29    -0.351 N 
HETATM   18  H2  MK1 B 902      10.180  27.120   6.512  1.00  0.00     0.163 HD
BRANCH  17  19
HETATM   19  C4  MK1 B 902      10.251  26.551   8.506  1.00 23.47     0.022 C 
HETATM   20  C7  MK1 B 902       9.997  27.955   8.843  1.00 22.75     0.037 C 
HETATM   21  C5  MK1 B 902      11.689  26.291   8.991  1.00 27.66     0.037 C 
HETATM   22  C6  MK1 B 902       9.353  25.776   9.221  1.00 21.71     0.037 C 
ENDBRANCH  17  19
ENDBRANCH   3  15
BRANCH   4  23
HETATM   23  C10 MK1 B 902      12.803  24.948   4.595  1.00 20.86     0.149 C 
BRANCH  23  24
HETATM   24  C11 MK1 B 902      13.674  24.009   5.431  1.00 21.68     0.136 C 
BRANCH  24  25
HETATM   25  O2  MK1 B 902      13.767  24.868   6.529  1.00 15.87    -0.394 OA
HETATM   26  H2  MK1 B 902      13.839  25.757   6.201  1.00  0.00     0.210 HD
ENDBRANCH  24  25
BRANCH  24  27
HETATM   27  C12 MK1 B 902      13.217  22.631   5.943  1.00 21.49     0.047 C 
BRANCH  27  28
HETATM   28  C13 MK1 B 902      14.244  21.531   6.250  1.00 26.89     0.084 C 
BRANCH  28  29
HETATM   29  C21 MK1 B 902      14.914  21.734   7.603  1.00 29.35     0.222 C 
HETATM   30  N4  MK1 B 902      15.759  20.774   7.970  1.00 31.19    -0.350 N 
HETATM   31  H4  MK1 B 902      15.739  19.879   7.482  1.00  0.00     0.163 HD
HETATM   32  O3  MK1 B 902      14.748  22.786   8.238  1.00 32.66    -0.273 OA
BRANCH  30  33
HETATM   33  C22 MK1 B 902      16.710  20.971   9.051  1.00 29.22     0.147 C 
HETATM   34  C30 MK1 B 902      17.102  19.747   9.920  1.00 31.86    -0.027 A 
HETATM   35  C29 MK1 B 902      16.408  18.678  10.391  1.00 27.70     0.010 A 
HETATM   36  C25 MK1 B 902      18.608  19.794  10.306  1.00 31.29    -0.047 A 
HETATM   37  C28 MK1 B 902      17.016  17.696  11.162  1.00 29.01     0.001 A 
HETATM   38  C27 MK1 B 902      18.378  17.742  11.492  1.00 28.00     0.001 A 
HETATM   39  C26 MK1 B 902      19.186  18.801  11.062  1.00 32.00     0.008 A 
HETATM   40  C24 MK1 B 902      19.050  21.059   9.612  1.00 32.05     0.073 C 
HETATM   41  C23 MK1 B 902      18.058  21.455   8.543  1.00 28.82     0.149 C 
BRANCH  41  42
HETATM   42  O4  MK1 B 902      18.332  20.896   7.267  1.00 28.32    -0.393 OA
HETATM   43  H4  MK1 B 902      18.009  20.003   7.222  1.00  0.00     0.210 HD
ENDBRANCH  41  42
ENDBRANCH  30  33
ENDBRANCH  28  29
BRANCH  28  44
HETATM   44  C14 MK1 B 902      15.332  21.431   5.166  1.00 28.67     0.052 C 
BRANCH  44  45
HETATM   45  C15 MK1 B 902      15.190  20.212   4.330  1.00 26.89    -0.057 A 
HETATM   46  C16 MK1 B 902      14.952  20.266   2.956  1.00 29.22     0.007 A 
HETATM   47  C17 MK1 B 902      14.790  19.101   2.220  1.00 29.22     0.001 A 
HETATM   48  C18 MK1 B 902      14.867  17.873   2.880  1.00 30.97     0.000 A 
HETATM   49  C19 MK1 B 902      15.114  17.814   4.257  1.00 29.25     0.001 A 
HETATM   50  C20 MK1 B 902      15.276  18.994   4.983  1.00 29.96     0.007 A 
ENDBRANCH  44  45
ENDBRANCH  28  44
ENDBRANCH  27  28
ENDBRANCH  24  27
ENDBRANCH  23  24
ENDBRANCH   4  23
TORSDOF 14
ENDMDL
MODEL 3
REMARK VINA RESULT:     -10.0      2.013     10.377
REMARK  14 active torsions:
REMARK  status: ('A' for Active; 'I' for Inactive)
REMARK    1  A    between atoms: N1_1  and  C31_43 
REMARK    2  A    between atoms: C2_3  and  C3_4 
REMARK       I    between atoms: C3_4  and  N2_6 
REMARK    3  A    between atoms: N2_6  and  C4_8 
REMARK    4  A    between atoms: N3_12  and  C10_15 
REMARK    5  A    between atoms: C10_15  and  C11_16 
REMARK    6  A    between atoms: C11_16  and  O2_17 
REMARK    7  A    between atoms: C11_16  and  C12_19 
REMARK    8  A    between atoms: C12_19  and  C13_20 
REMARK    9  A    between atoms: C13_20  and  C21_28 
REMARK   10  A    between atoms: C13_20  and  C14_21 
REMARK   11  A    between atoms: C14_21  and  C15_22 
REMARK       I    between atoms: C21_28  and  N4_30 
REMARK   12  A    between atoms: N4_30  and  C22_32 
REMARK   13  A    between atoms: C23_33  and  O4_34 
REMARK   14  A    between atoms: C31_43  and  C32_44 
ROOT
HETATM    1  N1  MK1 B 902      16.225  21.256   9.137  1.00 28.25     0.096 N 
HETATM    2  C1  MK1 B 902      15.884  20.492   7.907  1.00 30.30     0.307 C 
HETATM    3  C2  MK1 B 902      15.972  21.129   6.534  1.00 27.27     0.200 C 
HETATM    4  N3  MK1 B 902      15.036  22.298   6.679  1.00 28.91    -0.395 N 
HETATM    5  C8  MK1 B 902      15.050  23.076   7.943  1.00 26.24     0.148 C 
HETATM    6  C9  MK1 B 902      15.329  22.321   9.227  1.00 27.47     0.292 C 
ENDROOT
BRANCH   1   7
HETATM    7  C31 MK1 B 902      16.396  20.490  10.377  1.00 36.25     0.312 C 
BRANCH   7   8
HETATM    8  C32 MK1 B 902      17.103  19.129  10.385  1.00 42.75    -0.015 A 
HETATM    9  C36 MK1 B 902      18.409  19.085   9.946  1.00 44.71     0.011 A 
HETATM   10  C35 MK1 B 902      19.050  17.849   9.931  1.00 49.34     0.018 A 
HETATM   11  C34 MK1 B 902      18.366  16.704  10.352  1.00 50.60     0.087 A 
HETATM   12  N5  MK1 B 902      17.049  16.662  10.808  1.00 51.38    -0.375 N 
HETATM   13  C33 MK1 B 902      16.475  17.944  10.793  1.00 47.41     0.096 A 
HETATM   14  H5  MK1 B 902      16.568  15.815  11.111  1.00  0.00     0.164 HD
ENDBRANCH   7   8
ENDBRANCH   1   7
BRANCH   3  15
HETATM   15  C3  MK1 B 902      15.507  20.124   5.515  1.00 28.85     0.242 C 
HETATM   16  O1  MK1 B 902      14.331  19.787   5.471  1.00 29.59    -0.271 OA
HETATM   17  N2  MK1 B 902      16.420  19.631   4.702  1.00 22.29    -0.351 N 
HETATM   18  H2  MK1 B 902      17.374  19.943   4.887  1.00  0.00     0.163 HD
BRANCH  17  19
HETATM   19  C4  MK1 B 902      16.289  18.728   3.603  1.00 23.47     0.022 C 
HETATM   20  C7  MK1 B 902      17.536  18.527   2.858  1.00 22.75     0.037 C 
HETATM   21  C5  MK1 B 902      15.336  19.389   2.590  1.00 27.66     0.037 C 
HETATM   22  C6  MK1 B 902      15.813  17.480   3.971  1.00 21.71     0.037 C 
ENDBRANCH  17  19
ENDBRANCH   3  15
BRANCH   4  23
HETATM   23  C10 MK1 B 902      14.930  23.214   5.561  1.00 20.86     0.149 C 
BRANCH  23  24
HETATM   24  C11 MK1 B 902      13.536  23.280   4.936  1.00 21.68     0.136 C 
BRANCH  24  25
HETATM   25  O2  MK1 B 902      13.901  22.647   3.746  1.00 15.87    -0.394 OA
HETATM   26  H2  MK1 B 902      13.798  21.710   3.868  1.00  0.00     0.210 HD
ENDBRANCH  24  25
BRANCH  24  27
HETATM   27  C12 MK1 B 902      12.300  22.554   5.500  1.00 21.49     0.047 C 
BRANCH  27  28
HETATM   28  C13 MK1 B 902      10.934  23.253   5.539  1.00 26.89     0.084 C 
BRANCH  28  29
HETATM   29  C21 MK1 B 902      10.121  22.993   4.276  1.00 29.35     0.222 C 
HETATM   30  N4  MK1 B 902       8.891  23.500   4.276  1.00 31.19    -0.350 N 
HETATM   31  H4  MK1 B 902       8.478  23.805   5.157  1.00  0.00     0.163 HD
HETATM   32  O3  MK1 B 902      10.641  22.446   3.293  1.00 32.66    -0.273 OA
BRANCH  30  33
HETATM   33  C22 MK1 B 902       8.121  23.628   3.050  1.00 29.22     0.147 C 
HETATM   34  C30 MK1 B 902       6.574  23.562   3.141  1.00 31.86    -0.027 A 
HETATM   35  C29 MK1 B 902       5.715  22.830   3.898  1.00 27.70     0.010 A 
HETATM   36  C25 MK1 B 902       5.912  24.556   2.143  1.00 31.29    -0.047 A 
HETATM   37  C28 MK1 B 902       4.339  22.972   3.783  1.00 29.01     0.001 A 
HETATM   38  C27 MK1 B 902       3.754  23.882   2.889  1.00 28.00     0.001 A 
HETATM   39  C26 MK1 B 902       4.546  24.683   2.059  1.00 32.00     0.008 A 
HETATM   40  C24 MK1 B 902       7.127  25.193   1.514  1.00 32.05     0.073 C 
HETATM   41  C23 MK1 B 902       8.351  24.967   2.370  1.00 28.82     0.149 C 
BRANCH  41  42
HETATM   42  O4  MK1 B 902       8.570  25.980   3.341  1.00 28.32    -0.393 OA
HETATM   43  H4  MK1 B 902       9.304  26.527   3.086  1.00  0.00     0.210 HD
ENDBRANCH  41  42
ENDBRANCH  30  33
ENDBRANCH  28  29
BRANCH  28  44
HETATM   44  C14 MK1 B 902      11.062  24.773   5.744  1.00 28.67     0.052 C 
BRANCH  44  45
HETATM   45  C15 MK1 B 902      10.927  25.166   7.169  1.00 26.89    -0.057 A 
HETATM   46  C16 MK1 B 902      11.968  25.757   7.888  1.00 29.22     0.007 A 
HETATM   47  C17 MK1 B 902      11.810  26.075   9.229  1.00 29.22     0.001 A 
HETATM   48  C18 MK1 B 902      10.591  25.792   9.848  1.00 30.97     0.000 A 
HETATM   49  C19 MK1 B 902       9.541  25.207   9.129  1.00 29.25     0.001 A 
HETATM   50  C20 MK1 B 902       9.716  24.893   7.781  1.00 29.96     0.007 A 
ENDBRANCH  44  45
ENDBRANCH  28  44
ENDBRANCH  27  28
ENDBRANCH  24  27
ENDBRANCH  23  24
ENDBRANCH   4  23
TORSDOF 14
ENDMDL
MODEL 4
REMARK VINA RESULT:     -10.0      2.235      4.257
REMARK  14 active torsions:
REMARK  status: ('A' for Active; 'I' for Inactive)
REMARK    1  A    between atoms: N1_1  and  C31_43 
REMARK    2  A    between atoms: C2_3  and  C3_4 
REMARK       I    between atoms: C3_4  and  N2_6 
REMARK    3  A    between atoms: N2_6  and  C4_8 
REMARK    4  A    between atoms: N3_12  and  C10_15 
REMARK    5  A    between atoms: C10_15  and  C11_16 
REMARK    6  A    between atoms: C11_16  and  O2_17 
REMARK    7  A    between atoms: C11_16  and  C12_19 
REMARK    8  A    between atoms: C12_19  and  C13_20 
REMARK    9  A    between atoms: C13_20  and  C21_28 
REMARK   10  A    between atoms: C13_20  and  C14_21 
REMARK   11  A    between atoms: C14_21  and  C15_22 
REMARK       I    between atoms: C21_28  and  N4_30 
REMARK   12  A    between atoms: N4_30  and  C22_32 
REMARK   13  A    between atoms: C23_33  and  O4_34 
REMARK   14  A    between atoms: C31_43  and  C32_44 
ROOT
HETATM    1  N1  MK1 B 902       6.181  24.753   2.716  1.00 28.25     0.096 N 
HETATM    2  C1  MK1 B 902       6.602  25.714   3.770  1.00 30.30     0.307 C 
HETATM    3  C2  MK1 B 902       7.985  26.336   3.763  1.00 27.27     0.200 C 
HETATM    4  N3  MK1 B 902       8.868  25.118   3.806  1.00 28.91    -0.395 N 
HETATM    5  C8  MK1 B 902       8.499  23.935   2.989  1.00 26.24     0.148 C 
HETATM    6  C9  MK1 B 902       7.024  23.646   2.802  1.00 27.47     0.292 C 
ENDROOT
BRANCH   1   7
HETATM    7  C31 MK1 B 902       4.751  24.432   2.631  1.00 36.25     0.312 C 
BRANCH   7   8
HETATM    8  C32 MK1 B 902       4.203  23.091   3.132  1.00 42.75    -0.015 A 
HETATM    9  C36 MK1 B 902       3.107  22.565   2.482  1.00 44.71     0.011 A 
HETATM   10  C35 MK1 B 902       2.592  21.357   2.944  1.00 49.34     0.018 A 
HETATM   11  C34 MK1 B 902       3.186  20.719   4.038  1.00 50.60     0.087 A 
HETATM   12  N5  MK1 B 902       4.292  21.181   4.749  1.00 51.38    -0.375 N 
HETATM   13  C33 MK1 B 902       4.750  22.399   4.222  1.00 47.41     0.096 A 
HETATM   14  H5  MK1 B 902       4.711  20.699   5.545  1.00  0.00     0.164 HD
ENDBRANCH   7   8
ENDBRANCH   1   7
BRANCH   3  15
HETATM   15  C3  MK1 B 902       8.119  27.206   4.984  1.00 28.85     0.242 C 
HETATM   16  O1  MK1 B 902       8.904  28.145   4.990  1.00 29.59    -0.271 OA
HETATM   17  N2  MK1 B 902       7.371  26.896   6.024  1.00 22.29    -0.351 N 
HETATM   18  H2  MK1 B 902       6.811  26.050   5.913  1.00  0.00     0.163 HD
BRANCH  17  19
HETATM   19  C4  MK1 B 902       7.220  27.553   7.283  1.00 23.47     0.022 C 
HETATM   20  C7  MK1 B 902       8.404  28.315   7.692  1.00 22.75     0.037 C 
HETATM   21  C5  MK1 B 902       7.079  26.453   8.351  1.00 27.66     0.037 C 
HETATM   22  C6  MK1 B 902       6.132  28.411   7.327  1.00 21.71     0.037 C 
ENDBRANCH  17  19
ENDBRANCH   3  15
BRANCH   4  23
HETATM   23  C10 MK1 B 902      10.299  25.326   3.721  1.00 20.86     0.149 C 
BRANCH  23  24
HETATM   24  C11 MK1 B 902      11.064  24.161   3.089  1.00 21.68     0.136 C 
BRANCH  24  25
HETATM   25  O2  MK1 B 902      12.238  24.885   2.871  1.00 15.87    -0.394 OA
HETATM   26  H2  MK1 B 902      12.878  24.296   2.488  1.00  0.00     0.210 HD
ENDBRANCH  24  25
BRANCH  24  27
HETATM   27  C12 MK1 B 902      11.434  22.865   3.832  1.00 21.49     0.047 C 
BRANCH  27  28
HETATM   28  C13 MK1 B 902      11.949  22.914   5.278  1.00 26.89     0.084 C 
BRANCH  28  29
HETATM   29  C21 MK1 B 902      12.660  21.626   5.677  1.00 29.35     0.222 C 
HETATM   30  N4  MK1 B 902      13.680  21.274   4.900  1.00 31.19    -0.350 N 
HETATM   31  H4  MK1 B 902      13.784  21.713   3.985  1.00  0.00     0.163 HD
HETATM   32  O3  MK1 B 902      12.356  21.036   6.725  1.00 32.66    -0.273 OA
BRANCH  30  33
HETATM   33  C22 MK1 B 902      14.650  20.279   5.322  1.00 29.22     0.147 C 
HETATM   34  C30 MK1 B 902      15.470  19.538   4.233  1.00 31.86    -0.027 A 
HETATM   35  C29 MK1 B 902      15.167  19.078   2.991  1.00 27.70     0.010 A 
HETATM   36  C25 MK1 B 902      16.934  19.297   4.701  1.00 31.29    -0.047 A 
HETATM   37  C28 MK1 B 902      16.112  18.439   2.199  1.00 29.01     0.001 A 
HETATM   38  C27 MK1 B 902      17.433  18.239   2.627  1.00 28.00     0.001 A 
HETATM   39  C26 MK1 B 902      17.851  18.670   3.891  1.00 32.00     0.008 A 
HETATM   40  C24 MK1 B 902      16.916  19.941   6.066  1.00 32.05     0.073 C 
HETATM   41  C23 MK1 B 902      15.738  20.879   6.197  1.00 28.82     0.149 C 
BRANCH  41  42
HETATM   42  O4  MK1 B 902      16.016  22.212   5.791  1.00 28.32    -0.393 OA
HETATM   43  H4  MK1 B 902      15.724  22.825   6.456  1.00  0.00     0.210 HD
ENDBRANCH  41  42
ENDBRANCH  30  33
ENDBRANCH  28  29
BRANCH  28  44
HETATM   44  C14 MK1 B 902      10.822  23.194   6.288  1.00 28.67     0.052 C 
BRANCH  44  45
HETATM   45  C15 MK1 B 902      11.204  24.215   7.296  1.00 26.89    -0.057 A 
HETATM   46  C16 MK1 B 902      10.266  24.869   8.097  1.00 29.22     0.007 A 
HETATM   47  C17 MK1 B 902      10.664  25.844   9.000  1.00 29.22     0.001 A 
HETATM   48  C18 MK1 B 902      12.021  26.161   9.091  1.00 30.97     0.000 A 
HETATM   49  C19 MK1 B 902      12.966  25.503   8.295  1.00 29.25     0.001 A 
HETATM   50  C20 MK1 B 902      12.550  24.524   7.392  1.00 29.96     0.007 A 
ENDBRANCH  44  45
ENDBRANCH  28  44
ENDBRANCH  27  28
ENDBRANCH  24  27
ENDBRANCH  23  24
ENDBRANCH   4  23
TORSDOF 14
ENDMDL
MODEL 5
REMARK VINA RESULT:      -9.8      2.421      5.585
REMARK  14 active torsions:
REMARK  status: ('A' for Active; 'I' for Inactive)
REMARK    1  A    between atoms: N1_1  and  C31_43 
REMARK    2  A    between atoms: C2_3  and  C3_4 
REMARK       I    between atoms: C3_4  and  N2_6 
REMARK    3  A    between atoms: N2_6  and  C4_8 
REMARK    4  A    between atoms: N3_12  and  C10_15 
REMARK    5  A    between atoms: C10_15  and  C11_16 
REMARK    6  A    between atoms: C11_16  and  O2_17 
REMARK    7  A    between atoms: C11_16  and  C12_19 
REMARK    8  A    between atoms: C12_19  and  C13_20 
REMARK    9  A    between atoms: C13_20  and  C21_28 
REMARK   10  A    between atoms: C13_20  and  C14_21 
REMARK   11  A    between atoms: C14_21  and  C15_22 
REMARK       I    between atoms: C21_28  and  N4_30 
REMARK   12  A    between atoms: N4_30  and  C22_32 
REMARK   13  A    between atoms: C23_33  and  O4_34 
REMARK   14  A    between atoms: C31_43  and  C32_44 
ROOT
HETATM    1  N1  MK1 B 902      12.649  24.499   4.301  1.00 28.25     0.096 N 
HETATM    2  C1  MK1 B 902      11.981  25.002   5.531  1.00 30.30     0.307 C 
HETATM    3  C2  MK1 B 902      12.758  25.232   6.812  1.00 27.27     0.200 C 
HETATM    4  N3  MK1 B 902      13.333  23.865   7.071  1.00 28.91    -0.395 N 
HETATM    5  C8  MK1 B 902      13.857  23.079   5.926  1.00 26.24     0.148 C 
HETATM    6  C9  MK1 B 902      13.158  23.234   4.591  1.00 27.47     0.292 C 
ENDROOT
BRANCH   1   7
HETATM    7  C31 MK1 B 902      11.896  24.585   3.044  1.00 36.25     0.312 C 
BRANCH   7   8
HETATM    8  C32 MK1 B 902      10.450  24.084   2.944  1.00 42.75    -0.015 A 
HETATM    9  C36 MK1 B 902      10.252  22.726   2.819  1.00 44.71     0.011 A 
HETATM   10  C35 MK1 B 902       8.942  22.266   2.707  1.00 49.34     0.018 A 
HETATM   11  C34 MK1 B 902       7.880  23.176   2.721  1.00 50.60     0.087 A 
HETATM   12  N5  MK1 B 902       7.994  24.560   2.843  1.00 51.38    -0.375 N 
HETATM   13  C33 MK1 B 902       9.341  24.942   2.951  1.00 47.41     0.096 A 
HETATM   14  H5  MK1 B 902       7.205  25.207   2.852  1.00  0.00     0.164 HD
ENDBRANCH   7   8
ENDBRANCH   1   7
BRANCH   3  15
HETATM   15  C3  MK1 B 902      11.794  25.678   7.878  1.00 28.85     0.242 C 
HETATM   16  O1  MK1 B 902      12.164  25.787   9.040  1.00 29.59    -0.271 OA
HETATM   17  N2  MK1 B 902      10.556  25.923   7.499  1.00 22.29    -0.351 N 
HETATM   18  H2  MK1 B 902      10.361  25.729   6.516  1.00  0.00     0.163 HD
BRANCH  17  19
HETATM   19  C4  MK1 B 902       9.442  26.419   8.243  1.00 23.47     0.022 C 
HETATM   20  C7  MK1 B 902       8.278  26.739   7.411  1.00 22.75     0.037 C 
HETATM   21  C5  MK1 B 902       9.870  27.769   8.847  1.00 27.66     0.037 C 
HETATM   22  C6  MK1 B 902       9.021  25.555   9.242  1.00 21.71     0.037 C 
ENDBRANCH  17  19
ENDBRANCH   3  15
BRANCH   4  23
HETATM   23  C10 MK1 B 902      14.232  23.719   8.197  1.00 20.86     0.149 C 
BRANCH  23  24
HETATM   24  C11 MK1 B 902      15.518  22.955   7.876  1.00 21.68     0.136 C 
BRANCH  24  25
HETATM   25  O2  MK1 B 902      16.368  24.040   8.101  1.00 15.87    -0.394 OA
HETATM   26  H2  MK1 B 902      17.248  23.779   7.856  1.00  0.00     0.210 HD
ENDBRANCH  24  25
BRANCH  24  27
HETATM   27  C12 MK1 B 902      16.043  21.762   8.697  1.00 21.49     0.047 C 
BRANCH  27  28
HETATM   28  C13 MK1 B 902      16.500  20.474   7.997  1.00 26.89     0.084 C 
BRANCH  28  29
HETATM   29  C21 MK1 B 902      17.594  19.755   8.778  1.00 29.35     0.222 C 
HETATM   30  N4  MK1 B 902      17.167  18.956   9.752  1.00 31.19    -0.350 N 
HETATM   31  H4  MK1 B 902      16.206  19.041  10.081  1.00  0.00     0.163 HD
HETATM   32  O3  MK1 B 902      18.780  19.843   8.428  1.00 32.66    -0.273 OA
BRANCH  30  33
HETATM   33  C22 MK1 B 902      18.039  17.965  10.360  1.00 29.22     0.147 C 
HETATM   34  C30 MK1 B 902      18.778  18.337  11.672  1.00 31.86    -0.027 A 
HETATM   35  C29 MK1 B 902      19.350  19.483  12.126  1.00 27.70     0.010 A 
HETATM   36  C25 MK1 B 902      18.853  17.119  12.636  1.00 31.29    -0.047 A 
HETATM   37  C28 MK1 B 902      19.956  19.551  13.374  1.00 29.01     0.001 A 
HETATM   38  C27 MK1 B 902      20.006  18.449  14.241  1.00 28.00     0.001 A 
HETATM   39  C26 MK1 B 902      19.450  17.219  13.871  1.00 32.00     0.008 A 
HETATM   40  C24 MK1 B 902      18.119  16.068  11.841  1.00 32.05     0.073 C 
HETATM   41  C23 MK1 B 902      17.283  16.708  10.757  1.00 28.82     0.149 C 
BRANCH  41  42
HETATM   42  O4  MK1 B 902      15.963  17.037  11.165  1.00 28.32    -0.393 OA
HETATM   43  H4  MK1 B 902      15.986  17.657  11.884  1.00  0.00     0.210 HD
ENDBRANCH  41  42
ENDBRANCH  30  33
ENDBRANCH  28  29
BRANCH  28  44
HETATM   44  C14 MK1 B 902      16.999  20.734   6.565  1.00 28.67     0.052 C 
BRANCH  44  45
HETATM   45  C15 MK1 B 902      16.629  19.643   5.629  1.00 26.89    -0.057 A 
HETATM   46  C16 MK1 B 902      15.312  19.211   5.458  1.00 29.22     0.007 A 
HETATM   47  C17 MK1 B 902      15.017  18.163   4.599  1.00 29.22     0.001 A 
HETATM   48  C18 MK1 B 902      16.062  17.546   3.908  1.00 30.97     0.000 A 
HETATM   49  C19 MK1 B 902      17.383  17.980   4.070  1.00 29.25     0.001 A 
HETATM   50  C20 MK1 B 902      17.664  19.036   4.937  1.00 29.96     0.007 A 
ENDBRANCH  44  45
ENDBRANCH  28  44
ENDBRANCH  27  28
ENDBRANCH  24  27
ENDBRANCH  23  24
ENDBRANCH   4  23
TORSDOF 14
ENDMDL
MODEL 6
REMARK VINA RESULT:      -9.8      1.777      3.627
REMARK  14 active torsions:
REMARK  status: ('A' for Active; 'I' for Inactive)
REMARK    1  A    between atoms: N1_1  and  C31_43 
REMARK    2  A    between atoms: C2_3  and  C3_4 
REMARK       I    between atoms: C3_4  and  N2_6 
REMARK    3  A    between atoms: N2_6  and  C4_8 
REMARK    4  A    between atoms: N3_12  and  C10_15 
REMARK    5  A    between atoms: C10_15  and  C11_16 
REMARK    6  A    between atoms: C11_16  and  O2_17 
REMARK    7  A    between atoms: C11_16  and  C12_19 
REMARK    8  A    between atoms: C12_19  and  C13_20 
REMARK    9  A    between atoms: C13_20  and  C21_28 
REMARK   10  A    between atoms: C13_20  and  C14_21 
REMARK   11  A    between atoms: C14_21  and  C15_22 
REMARK       I    between atoms: C21_28  and  N4_30 
REMARK   12  A    between atoms: N4_30  and  C22_32 
REMARK   13  A    between atoms: C23_33  and  O4_34 
REMARK   14  A    between atoms: C31_43  and  C32_44 
ROOT
HETATM    1  N1  MK1 B 902       8.461  27.103   7.056  1.00 28.25     0.096 N 
HETATM    2  C1  MK1 B 902       9.283  26.421   6.020  1.00 30.30     0.307 C 
HETATM    3  C2  MK1 B 902      10.018  25.130   6.322  1.00 27.27     0.200 C 
HETATM    4  N3  MK1 B 902      10.894  25.540   7.474  1.00 28.91    -0.395 N 
HETATM    5  C8  MK1 B 902      10.332  26.426   8.525  1.00 26.24     0.148 C 
HETATM    6  C9  MK1 B 902       9.318  27.466   8.094  1.00 27.47     0.292 C 
ENDROOT
BRANCH   1   7
HETATM    7  C31 MK1 B 902       7.559  28.169   6.603  1.00 36.25     0.312 C 
BRANCH   7   8
HETATM    8  C32 MK1 B 902       6.066  27.907   6.370  1.00 42.75    -0.015 A 
HETATM    9  C36 MK1 B 902       5.165  28.738   6.999  1.00 44.71     0.011 A 
HETATM   10  C35 MK1 B 902       3.807  28.493   6.807  1.00 49.34     0.018 A 
HETATM   11  C34 MK1 B 902       3.399  27.428   5.998  1.00 50.60     0.087 A 
HETATM   12  N5  MK1 B 902       4.243  26.543   5.328  1.00 51.38    -0.375 N 
HETATM   13  C33 MK1 B 902       5.590  26.857   5.572  1.00 47.41     0.096 A 
HETATM   14  H5  MK1 B 902       3.924  25.771   4.742  1.00  0.00     0.164 HD
ENDBRANCH   7   8
ENDBRANCH   1   7
BRANCH   3  15
HETATM   15  C3  MK1 B 902      10.799  24.733   5.099  1.00 28.85     0.242 C 
HETATM   16  O1  MK1 B 902      11.773  25.387   4.748  1.00 29.59    -0.271 OA
HETATM   17  N2  MK1 B 902      10.375  23.675   4.436  1.00 22.29    -0.351 N 
HETATM   18  H2  MK1 B 902       9.514  23.261   4.795  1.00  0.00     0.163 HD
BRANCH  17  19
HETATM   19  C4  MK1 B 902      10.929  23.014   3.297  1.00 23.47     0.022 C 
HETATM   20  C7  MK1 B 902      11.125  23.900   2.145  1.00 22.75     0.037 C 
HETATM   21  C5  MK1 B 902       9.885  21.987   2.822  1.00 27.66     0.037 C 
HETATM   22  C6  MK1 B 902      12.137  22.388   3.559  1.00 21.71     0.037 C 
ENDBRANCH  17  19
ENDBRANCH   3  15
BRANCH   4  23
HETATM   23  C10 MK1 B 902      11.699  24.512   8.103  1.00 20.86     0.149 C 
BRANCH  23  24
HETATM   24  C11 MK1 B 902      13.150  24.470   7.621  1.00 21.68     0.136 C 
BRANCH  24  25
HETATM   25  O2  MK1 B 902      13.485  25.731   8.119  1.00 15.87    -0.394 OA
HETATM   26  H2  MK1 B 902      12.737  26.304   7.994  1.00  0.00     0.210 HD
ENDBRANCH  24  25
BRANCH  24  27
HETATM   27  C12 MK1 B 902      14.200  23.464   8.126  1.00 21.49     0.047 C 
BRANCH  27  28
HETATM   28  C13 MK1 B 902      15.427  23.119   7.270  1.00 26.89     0.084 C 
BRANCH  28  29
HETATM   29  C21 MK1 B 902      15.281  21.769   6.578  1.00 29.35     0.222 C 
HETATM   30  N4  MK1 B 902      16.398  21.277   6.048  1.00 31.19    -0.350 N 
HETATM   31  H4  MK1 B 902      17.200  21.892   5.915  1.00  0.00     0.163 HD
HETATM   32  O3  MK1 B 902      14.209  21.148   6.625  1.00 32.66    -0.273 OA
BRANCH  30  33
HETATM   33  C22 MK1 B 902      16.502  19.882   5.654  1.00 29.22     0.147 C 
HETATM   34  C30 MK1 B 902      16.182  19.505   4.184  1.00 31.86    -0.027 A 
HETATM   35  C29 MK1 B 902      15.261  19.947   3.288  1.00 27.70     0.010 A 
HETATM   36  C25 MK1 B 902      17.136  18.388   3.672  1.00 31.29    -0.047 A 
HETATM   37  C28 MK1 B 902      15.189  19.432   2.001  1.00 29.01     0.001 A 
HETATM   38  C27 MK1 B 902      16.065  18.434   1.546  1.00 28.00     0.001 A 
HETATM   39  C26 MK1 B 902      17.049  17.904   2.388  1.00 32.00     0.008 A 
HETATM   40  C24 MK1 B 902      18.010  18.170   4.883  1.00 32.05     0.073 C 
HETATM   41  C23 MK1 B 902      17.913  19.345   5.828  1.00 28.82     0.149 C 
BRANCH  41  42
HETATM   42  O4  MK1 B 902      18.864  20.369   5.574  1.00 28.32    -0.393 OA
HETATM   43  H4  MK1 B 902      18.661  21.142   6.089  1.00  0.00     0.210 HD
ENDBRANCH  41  42
ENDBRANCH  30  33
ENDBRANCH  28  29
BRANCH  28  44
HETATM   44  C14 MK1 B 902      16.729  23.120   8.090  1.00 28.67     0.052 C 
BRANCH  44  45
HETATM   45  C15 MK1 B 902      16.903  21.875   8.880  1.00 26.89    -0.057 A 
HETATM   46  C16 MK1 B 902      15.870  21.308   9.629  1.00 29.22     0.007 A 
HETATM   47  C17 MK1 B 902      16.088  20.164  10.382  1.00 29.22     0.001 A 
HETATM   48  C18 MK1 B 902      17.361  19.589  10.378  1.00 30.97     0.000 A 
HETATM   49  C19 MK1 B 902      18.398  20.149   9.622  1.00 29.25     0.001 A 
HETATM   50  C20 MK1 B 902      18.163  21.300   8.870  1.00 29.96     0.007 A 
ENDBRANCH  44  45
ENDBRANCH  28  44
ENDBRANCH  27  28
ENDBRANCH  24  27
ENDBRANCH  23  24
ENDBRANCH   4  23
TORSDOF 14
ENDMDL
MODEL 7
REMARK VINA RESULT:      -9.8      1.439      3.625
REMARK  14 active torsions:
REMARK  status: ('A' for Active; 'I' for Inactive)
REMARK    1  A    between atoms: N1_1  and  C31_43 
REMARK    2  A    between atoms: C2_3  and  C3_4 
REMARK       I    between atoms: C3_4  and  N2_6 
REMARK    3  A    between atoms: N2_6  and  C4_8 
REMARK    4  A    between atoms: N3_12  and  C10_15 
REMARK    5  A    between atoms: C10_15  and  C11_16 
REMARK    6  A    between atoms: C11_16  and  O2_17 
REMARK    7  A    between atoms: C11_16  and  C12_19 
REMARK    8  A    between atoms: C12_19  and  C13_20 
REMARK    9  A    between atoms: C13_20  and  C21_28 
REMARK   10  A    between atoms: C13_20  and  C14_21 
REMARK   11  A    between atoms: C14_21  and  C15_22 
REMARK       I    between atoms: C21_28  and  N4_30 
REMARK   12  A    between atoms: N4_30  and  C22_32 
REMARK   13  A    between atoms: C23_33  and  O4_34 
REMARK   14  A    between atoms: C31_43  and  C32_44 
ROOT
HETATM    1  N1  MK1 B 902      10.517  24.791   7.780  1.00 28.25     0.096 N 
HETATM    2  C1  MK1 B 902      10.098  24.571   6.370  1.00 30.30     0.307 C 
HETATM    3  C2  MK1 B 902      11.069  24.046   5.331  1.00 27.27     0.200 C 
HETATM    4  N3  MK1 B 902      12.159  25.083   5.380  1.00 28.91    -0.395 N 
HETATM    5  C8  MK1 B 902      12.581  25.619   6.698  1.00 26.24     0.148 C 
HETATM    6  C9  MK1 B 902      11.520  25.760   7.770  1.00 27.47     0.292 C 
ENDROOT
BRANCH   1   7
HETATM    7  C31 MK1 B 902       9.456  25.015   8.769  1.00 36.25     0.312 C 
BRANCH   7   8
HETATM    8  C32 MK1 B 902       8.513  26.220   8.670  1.00 42.75    -0.015 A 
HETATM    9  C36 MK1 B 902       7.413  26.105   7.848  1.00 44.71     0.011 A 
HETATM   10  C35 MK1 B 902       6.563  27.202   7.737  1.00 49.34     0.018 A 
HETATM   11  C34 MK1 B 902       6.843  28.374   8.448  1.00 50.60     0.087 A 
HETATM   12  N5  MK1 B 902       7.930  28.573   9.297  1.00 51.38    -0.375 N 
HETATM   13  C33 MK1 B 902       8.735  27.424   9.354  1.00 47.41     0.096 A 
HETATM   14  H5  MK1 B 902       8.116  29.437   9.808  1.00  0.00     0.164 HD
ENDBRANCH   7   8
ENDBRANCH   1   7
BRANCH   3  15
HETATM   15  C3  MK1 B 902      10.362  23.994   4.004  1.00 28.85     0.242 C 
HETATM   16  O1  MK1 B 902      10.856  23.384   3.064  1.00 29.59    -0.271 OA
HETATM   17  N2  MK1 B 902       9.217  24.640   3.911  1.00 22.29    -0.351 N 
HETATM   18  H2  MK1 B 902       8.951  25.164   4.746  1.00  0.00     0.163 HD
BRANCH  17  19
HETATM   19  C4  MK1 B 902       8.288  24.724   2.830  1.00 23.47     0.022 C 
HETATM   20  C7  MK1 B 902       8.033  23.437   2.175  1.00 22.75     0.037 C 
HETATM   21  C5  MK1 B 902       8.945  25.590   1.740  1.00 27.66     0.037 C 
HETATM   22  C6  MK1 B 902       7.063  25.259   3.199  1.00 21.71     0.037 C 
ENDBRANCH  17  19
ENDBRANCH   3  15
BRANCH   4  23
HETATM   23  C10 MK1 B 902      13.333  24.860   4.560  1.00 20.86     0.149 C 
BRANCH  23  24
HETATM   24  C11 MK1 B 902      14.306  23.827   5.130  1.00 21.68     0.136 C 
BRANCH  24  25
HETATM   25  O2  MK1 B 902      15.459  24.498   4.717  1.00 15.87    -0.394 OA
HETATM   26  H2  MK1 B 902      16.211  23.998   5.011  1.00  0.00     0.210 HD
ENDBRANCH  24  25
BRANCH  24  27
HETATM   27  C12 MK1 B 902      14.451  23.510   6.630  1.00 21.49     0.047 C 
BRANCH  27  28
HETATM   28  C13 MK1 B 902      15.556  22.567   7.127  1.00 26.89     0.084 C 
BRANCH  28  29
HETATM   29  C21 MK1 B 902      15.515  21.216   6.424  1.00 29.35     0.222 C 
HETATM   30  N4  MK1 B 902      16.680  20.785   5.948  1.00 31.19    -0.350 N 
HETATM   31  H4  MK1 B 902      17.455  21.443   5.856  1.00  0.00     0.163 HD
HETATM   32  O3  MK1 B 902      14.476  20.540   6.416  1.00 32.66    -0.273 OA
BRANCH  30  33
HETATM   33  C22 MK1 B 902      16.877  19.400   5.555  1.00 29.22     0.147 C 
HETATM   34  C30 MK1 B 902      16.617  19.009   4.076  1.00 31.86    -0.027 A 
HETATM   35  C29 MK1 B 902      15.695  19.399   3.157  1.00 27.70     0.010 A 
HETATM   36  C25 MK1 B 902      17.648  17.952   3.588  1.00 31.29    -0.047 A 
HETATM   37  C28 MK1 B 902      15.687  18.884   1.868  1.00 29.01     0.001 A 
HETATM   38  C27 MK1 B 902      16.631  17.941   1.435  1.00 28.00     0.001 A 
HETATM   39  C26 MK1 B 902      17.622  17.467   2.301  1.00 32.00     0.008 A 
HETATM   40  C24 MK1 B 902      18.502  17.782   4.820  1.00 32.05     0.073 C 
HETATM   41  C23 MK1 B 902      18.312  18.947   5.764  1.00 28.82     0.149 C 
BRANCH  41  42
HETATM   42  O4  MK1 B 902      19.207  20.025   5.536  1.00 28.32    -0.393 OA
HETATM   43  H4  MK1 B 902      19.696  20.219   6.327  1.00  0.00     0.210 HD
ENDBRANCH  41  42
ENDBRANCH  30  33
ENDBRANCH  28  29
BRANCH  28  44
HETATM   44  C14 MK1 B 902      15.489  22.340   8.647  1.00 28.67     0.052 C 
BRANCH  44  45
HETATM   45  C15 MK1 B 902      16.618  21.518   9.149  1.00 26.89    -0.057 A 
HETATM   46  C16 MK1 B 902      17.953  21.828   8.880  1.00 29.22     0.007 A 
HETATM   47  C17 MK1 B 902      18.975  21.010   9.338  1.00 29.22     0.001 A 
HETATM   48  C18 MK1 B 902      18.644  19.869  10.073  1.00 30.97     0.000 A 
HETATM   49  C19 MK1 B 902      17.308  19.558  10.352  1.00 29.25     0.001 A 
HETATM   50  C20 MK1 B 902      16.291  20.391   9.884  1.00 29.96     0.007 A 
ENDBRANCH  44  45
ENDBRANCH  28  44
ENDBRANCH  27  28
ENDBRANCH  24  27
ENDBRANCH  23  24
ENDBRANCH   4  23
TORSDOF 14
ENDMDL
MODEL 8
REMARK VINA RESULT:      -9.7      2.176     10.607
REMARK  14 active torsions:
REMARK  status: ('A' for Active; 'I' for Inactive)
REMARK    1  A    between atoms: N1_1  and  C31_43 
REMARK    2  A    between atoms: C2_3  and  C3_4 
REMARK       I    between atoms: C3_4  and  N2_6 
REMARK    3  A    between atoms: N2_6  and  C4_8 
REMARK    4  A    between atoms: N3_12  and  C10_15 
REMARK    5  A    between atoms: C10_15  and  C11_16 
REMARK    6  A    between atoms: C11_16  and  O2_17 
REMARK    7  A    between atoms: C11_16  and  C12_19 
REMARK    8  A    between atoms: C12_19  and  C13_20 
REMARK    9  A    between atoms: C13_20  and  C21_28 
REMARK   10  A    between atoms: C13_20  and  C14_21 
REMARK   11  A    between atoms: C14_21  and  C15_22 
REMARK       I    between atoms: C21_28  and  N4_30 
REMARK   12  A    between atoms: N4_30  and  C22_32 
REMARK   13  A    between atoms: C23_33  and  O4_34 
REMARK   14  A    between atoms: C31_43  and  C32_44 
ROOT
HETATM    1  N1  MK1 B 902      15.292  23.158   7.256  1.00 28.25     0.096 N 
HETATM    2  C1  MK1 B 902      15.396  22.173   6.146  1.00 30.30     0.307 C 
HETATM    3  C2  MK1 B 902      14.558  22.308   4.891  1.00 27.27     0.200 C 
HETATM    4  N3  MK1 B 902      13.162  22.292   5.453  1.00 28.91    -0.395 N 
HETATM    5  C8  MK1 B 902      12.884  23.037   6.706  1.00 26.24     0.148 C 
HETATM    6  C9  MK1 B 902      13.987  23.101   7.743  1.00 27.47     0.292 C 
ENDROOT
BRANCH   1   7
HETATM    7  C31 MK1 B 902      16.336  23.121   8.288  1.00 36.25     0.312 C 
BRANCH   7   8
HETATM    8  C32 MK1 B 902      16.914  21.793   8.791  1.00 42.75    -0.015 A 
HETATM    9  C36 MK1 B 902      18.270  21.592   8.650  1.00 44.71     0.011 A 
HETATM   10  C35 MK1 B 902      18.799  20.380   9.087  1.00 49.34     0.018 A 
HETATM   11  C34 MK1 B 902      17.956  19.413   9.644  1.00 50.60     0.087 A 
HETATM   12  N5  MK1 B 902      16.579  19.536   9.822  1.00 51.38    -0.375 N 
HETATM   13  C33 MK1 B 902      16.126  20.782   9.359  1.00 47.41     0.096 A 
HETATM   14  H5  MK1 B 902      15.982  18.818  10.233  1.00  0.00     0.164 HD
ENDBRANCH   7   8
ENDBRANCH   1   7
BRANCH   3  15
HETATM   15  C3  MK1 B 902      14.847  21.131   3.999  1.00 28.85     0.242 C 
HETATM   16  O1  MK1 B 902      14.393  21.091   2.862  1.00 29.59    -0.271 OA
HETATM   17  N2  MK1 B 902      15.588  20.165   4.504  1.00 22.29    -0.351 N 
HETATM   18  H2  MK1 B 902      15.846  20.290   5.484  1.00  0.00     0.163 HD
BRANCH  17  19
HETATM   19  C4  MK1 B 902      16.088  18.971   3.902  1.00 23.47     0.022 C 
HETATM   20  C7  MK1 B 902      15.948  18.949   2.442  1.00 22.75     0.037 C 
HETATM   21  C5  MK1 B 902      15.200  17.813   4.393  1.00 27.66     0.037 C 
HETATM   22  C6  MK1 B 902      17.417  18.720   4.201  1.00 21.71     0.037 C 
ENDBRANCH  17  19
ENDBRANCH   3  15
BRANCH   4  23
HETATM   23  C10 MK1 B 902      12.065  22.495   4.528  1.00 20.86     0.149 C 
BRANCH  23  24
HETATM   24  C11 MK1 B 902      12.071  23.860   3.839  1.00 21.68     0.136 C 
BRANCH  24  25
HETATM   25  O2  MK1 B 902      12.290  23.354   2.557  1.00 15.87    -0.394 OA
HETATM   26  H2  MK1 B 902      12.473  22.425   2.635  1.00  0.00     0.210 HD
ENDBRANCH  24  25
BRANCH  24  27
HETATM   27  C12 MK1 B 902      10.855  24.803   3.777  1.00 21.49     0.047 C 
BRANCH  27  28
HETATM   28  C13 MK1 B 902       9.642  24.576   4.691  1.00 26.89     0.084 C 
BRANCH  28  29
HETATM   29  C21 MK1 B 902       8.557  23.752   4.008  1.00 29.35     0.222 C 
HETATM   30  N4  MK1 B 902       7.395  24.374   3.832  1.00 31.19    -0.350 N 
HETATM   31  H4  MK1 B 902       7.207  25.233   4.350  1.00  0.00     0.163 HD
HETATM   32  O3  MK1 B 902       8.810  22.625   3.556  1.00 32.66    -0.273 OA
BRANCH  30  33
HETATM   33  C22 MK1 B 902       6.386  23.861   2.922  1.00 29.22     0.147 C 
HETATM   34  C30 MK1 B 902       4.892  24.110   3.258  1.00 31.86    -0.027 A 
HETATM   35  C29 MK1 B 902       4.190  24.128   4.421  1.00 27.70     0.010 A 
HETATM   36  C25 MK1 B 902       4.068  24.393   1.970  1.00 31.29    -0.047 A 
HETATM   37  C28 MK1 B 902       2.827  24.390   4.446  1.00 29.01     0.001 A 
HETATM   38  C27 MK1 B 902       2.096  24.658   3.279  1.00 28.00     0.001 A 
HETATM   39  C26 MK1 B 902       2.720  24.660   2.026  1.00 32.00     0.008 A 
HETATM   40  C24 MK1 B 902       5.141  24.321   0.912  1.00 32.05     0.073 C 
HETATM   41  C23 MK1 B 902       6.512  24.464   1.533  1.00 28.82     0.149 C 
BRANCH  41  42
HETATM   42  O4  MK1 B 902       6.968  25.806   1.619  1.00 28.32    -0.393 OA
HETATM   43  H4  MK1 B 902       7.404  25.953   2.451  1.00  0.00     0.210 HD
ENDBRANCH  41  42
ENDBRANCH  30  33
ENDBRANCH  28  29
BRANCH  28  44
HETATM   44  C14 MK1 B 902       9.028  25.897   5.183  1.00 28.67     0.052 C 
BRANCH  44  45
HETATM   45  C15 MK1 B 902       9.461  26.247   6.560  1.00 26.89    -0.057 A 
HETATM   46  C16 MK1 B 902       9.257  27.512   7.114  1.00 29.22     0.007 A 
HETATM   47  C17 MK1 B 902       9.712  27.805   8.391  1.00 29.22     0.001 A 
HETATM   48  C18 MK1 B 902      10.379  26.813   9.112  1.00 30.97     0.000 A 
HETATM   49  C19 MK1 B 902      10.579  25.540   8.563  1.00 29.25     0.001 A 
HETATM   50  C20 MK1 B 902      10.115  25.260   7.278  1.00 29.96     0.007 A 
ENDBRANCH  44  45
ENDBRANCH  28  44
ENDBRANCH  27  28
ENDBRANCH  24  27
ENDBRANCH  23  24
ENDBRANCH   4  23
TORSDOF 14
ENDMDL
MODEL 9
REMARK VINA RESULT:      -9.6      2.052     10.247
REMARK  14 active torsions:
REMARK  status: ('A' for Active; 'I' for Inactive)
REMARK    1  A    between atoms: N1_1  and  C31_43 
REMARK    2  A    between atoms: C2_3  and  C3_4 
REMARK       I    between atoms: C3_4  and  N2_6 
REMARK    3  A    between atoms: N2_6  and  C4_8 
REMARK    4  A    between atoms: N3_12  and  C10_15 
REMARK    5  A    between atoms: C10_15  and  C11_16 
REMARK    6  A    between atoms: C11_16  and  O2_17 
REMARK    7  A    between atoms: C11_16  and  C12_19 
REMARK    8  A    between atoms: C12_19  and  C13_20 
REMARK    9  A    between atoms: C13_20  and  C21_28 
REMARK   10  A    between atoms: C13_20  and  C14_21 
REMARK   11  A    between atoms: C14_21  and  C15_22 
REMARK       I    between atoms: C21_28  and  N4_30 
REMARK   12  A    between atoms: N4_30  and  C22_32 
REMARK   13  A    between atoms: C23_33  and  O4_34 
REMARK   14  A    between atoms: C31_43  and  C32_44 
ROOT
HETATM    1  N1  MK1 B 902      14.526  19.663   3.817  1.00 28.25     0.096 N 
HETATM    2  C1  MK1 B 902      14.897  20.117   5.183  1.00 30.30     0.307 C 
HETATM    3  C2  MK1 B 902      14.220  21.310   5.829  1.00 27.27     0.200 C 
HETATM    4  N3  MK1 B 902      14.513  22.402   4.836  1.00 28.91    -0.395 N 
HETATM    5  C8  MK1 B 902      14.423  22.096   3.386  1.00 26.24     0.148 C 
HETATM    6  C9  MK1 B 902      14.820  20.704   2.938  1.00 27.47     0.292 C 
ENDROOT
BRANCH   1   7
HETATM    7  C31 MK1 B 902      15.011  18.344   3.392  1.00 36.25     0.312 C 
BRANCH   7   8
HETATM    8  C32 MK1 B 902      16.379  17.815   3.838  1.00 42.75    -0.015 A 
HETATM    9  C36 MK1 B 902      17.467  18.102   3.043  1.00 44.71     0.011 A 
HETATM   10  C35 MK1 B 902      18.709  17.607   3.433  1.00 49.34     0.018 A 
HETATM   11  C34 MK1 B 902      18.819  16.842   4.598  1.00 50.60     0.087 A 
HETATM   12  N5  MK1 B 902      17.773  16.507   5.456  1.00 51.38    -0.375 N 
HETATM   13  C33 MK1 B 902      16.559  17.042   4.995  1.00 47.41     0.096 A 
HETATM   14  H5  MK1 B 902      17.875  15.948   6.303  1.00  0.00     0.164 HD
ENDBRANCH   7   8
ENDBRANCH   1   7
BRANCH   3  15
HETATM   15  C3  MK1 B 902      14.857  21.547   7.171  1.00 28.85     0.242 C 
HETATM   16  O1  MK1 B 902      14.221  22.076   8.073  1.00 29.59    -0.271 OA
HETATM   17  N2  MK1 B 902      16.115  21.175   7.311  1.00 22.29    -0.351 N 
HETATM   18  H2  MK1 B 902      16.550  20.809   6.464  1.00  0.00     0.163 HD
BRANCH  17  19
HETATM   19  C4  MK1 B 902      16.965  21.200   8.458  1.00 23.47     0.022 C 
HETATM   20  C7  MK1 B 902      17.288  22.555   8.918  1.00 22.75     0.037 C 
HETATM   21  C5  MK1 B 902      18.317  20.604   8.029  1.00 27.66     0.037 C 
HETATM   22  C6  MK1 B 902      16.450  20.501   9.538  1.00 21.71     0.037 C 
ENDBRANCH  17  19
ENDBRANCH   3  15
BRANCH   4  23
HETATM   23  C10 MK1 B 902      13.930  23.705   5.082  1.00 20.86     0.149 C 
BRANCH  23  24
HETATM   24  C11 MK1 B 902      12.436  23.671   5.410  1.00 21.68     0.136 C 
BRANCH  24  25
HETATM   25  O2  MK1 B 902      12.565  24.298   6.651  1.00 15.87    -0.394 OA
HETATM   26  H2  MK1 B 902      12.009  23.840   7.270  1.00  0.00     0.210 HD
ENDBRANCH  24  25
BRANCH  24  27
HETATM   27  C12 MK1 B 902      11.357  24.422   4.608  1.00 21.49     0.047 C 
BRANCH  27  28
HETATM   28  C13 MK1 B 902       9.895  24.421   5.074  1.00 26.89     0.084 C 
BRANCH  28  29
HETATM   29  C21 MK1 B 902       8.988  23.657   4.117  1.00 29.35     0.222 C 
HETATM   30  N4  MK1 B 902       7.758  24.146   3.984  1.00 31.19    -0.350 N 
HETATM   31  H4  MK1 B 902       7.413  24.818   4.669  1.00  0.00     0.163 HD
HETATM   32  O3  MK1 B 902       9.434  22.719   3.439  1.00 32.66    -0.273 OA
BRANCH  30  33
HETATM   33  C22 MK1 B 902       6.895  23.744   2.887  1.00 29.22     0.147 C 
HETATM   34  C30 MK1 B 902       5.377  23.580   3.164  1.00 31.86    -0.027 A 
HETATM   35  C29 MK1 B 902       4.670  23.105   4.223  1.00 27.70     0.010 A 
HETATM   36  C25 MK1 B 902       4.531  24.073   1.956  1.00 31.29    -0.047 A 
HETATM   37  C28 MK1 B 902       3.282  23.072   4.217  1.00 29.01     0.001 A 
HETATM   38  C27 MK1 B 902       2.528  23.533   3.127  1.00 28.00     0.001 A 
HETATM   39  C26 MK1 B 902       3.156  24.039   1.983  1.00 32.00     0.008 A 
HETATM   40  C24 MK1 B 902       5.610  24.539   1.011  1.00 32.05     0.073 C 
HETATM   41  C23 MK1 B 902       6.910  24.754   1.751  1.00 28.82     0.149 C 
BRANCH  41  42
HETATM   42  O4  MK1 B 902       7.070  26.068   2.264  1.00 28.32    -0.393 OA
HETATM   43  H4  MK1 B 902       7.126  26.695   1.552  1.00  0.00     0.210 HD
ENDBRANCH  41  42
ENDBRANCH  30  33
ENDBRANCH  28  29
BRANCH  28  44
HETATM   44  C14 MK1 B 902       9.340  25.845   5.255  1.00 28.67     0.052 C 
BRANCH  44  45
HETATM   45  C15 MK1 B 902       9.349  26.283   6.673  1.00 26.89    -0.057 A 
HETATM   46  C16 MK1 B 902       9.233  27.623   7.048  1.00 29.22     0.007 A 
HETATM   47  C17 MK1 B 902       9.283  27.990   8.384  1.00 29.22     0.001 A 
HETATM   48  C18 MK1 B 902       9.454  26.995   9.349  1.00 30.97     0.000 A 
HETATM   49  C19 MK1 B 902       9.563  25.649   8.978  1.00 29.25     0.001 A 
HETATM   50  C20 MK1 B 902       9.510  25.295   7.630  1.00 29.96     0.007 A 
ENDBRANCH  44  45
ENDBRANCH  28  44
ENDBRANCH  27  28
ENDBRANCH  24  27
ENDBRANCH  23  24
ENDBRANCH   4  23
TORSDOF 14
ENDMDL
MODEL 10
REMARK VINA RESULT:      -9.5      2.119     10.011
REMARK  14 active torsions:
REMARK  status: ('A' for Active; 'I' for Inactive)
REMARK    1  A    between atoms: N1_1  and  C31_43 
REMARK    2  A    between atoms: C2_3  and  C3_4 
REMARK       I    between atoms: C3_4  and  N2_6 
REMARK    3  A    between atoms: N2_6  and  C4_8 
REMARK    4  A    between atoms: N3_12  and  C10_15 
REMARK    5  A    between atoms: C10_15  and  C11_16 
REMARK    6  A    between atoms: C11_16  and  O2_17 
REMARK    7  A    between atoms: C11_16  and  C12_19 
REMARK    8  A    between atoms: C12_19  and  C13_20 
REMARK    9  A    between atoms: C13_20  and  C21_28 
REMARK   10  A    between atoms: C13_20  and  C14_21 
REMARK   11  A    between atoms: C14_21  and  C15_22 
REMARK       I    between atoms: C21_28  and  N4_30 
REMARK   12  A    between atoms: N4_30  and  C22_32 
REMARK   13  A    between atoms: C23_33  and  O4_34 
REMARK   14  A    between atoms: C31_43  and  C32_44 
ROOT
HETATM    1  N1  MK1 B 902      16.761  18.116   3.928  1.00 28.25     0.096 N 
HETATM    2  C1  MK1 B 902      16.949  18.964   5.136  1.00 30.30     0.307 C 
HETATM    3  C2  MK1 B 902      15.802  19.758   5.729  1.00 27.27     0.200 C 
HETATM    4  N3  MK1 B 902      15.394  20.620   4.565  1.00 28.91    -0.395 N 
HETATM    5  C8  MK1 B 902      15.359  20.022   3.206  1.00 26.24     0.148 C 
HETATM    6  C9  MK1 B 902      16.390  18.960   2.882  1.00 27.47     0.292 C 
ENDROOT
BRANCH   1   7
HETATM    7  C31 MK1 B 902      17.830  17.165   3.601  1.00 36.25     0.312 C 
BRANCH   7   8
HETATM    8  C32 MK1 B 902      18.666  16.495   4.698  1.00 42.75    -0.015 A 
HETATM    9  C36 MK1 B 902      18.007  16.060   5.829  1.00 44.71     0.011 A 
HETATM   10  C35 MK1 B 902      18.764  15.469   6.837  1.00 49.34     0.018 A 
HETATM   11  C34 MK1 B 902      20.147  15.335   6.684  1.00 50.60     0.087 A 
HETATM   12  N5  MK1 B 902      20.888  15.747   5.577  1.00 51.38    -0.375 N 
HETATM   13  C33 MK1 B 902      20.055  16.330   4.608  1.00 47.41     0.096 A 
HETATM   14  H5  MK1 B 902      21.898  15.639   5.484  1.00  0.00     0.164 HD
ENDBRANCH   7   8
ENDBRANCH   1   7
BRANCH   3  15
HETATM   15  C3  MK1 B 902      16.328  20.551   6.894  1.00 28.85     0.242 C 
HETATM   16  O1  MK1 B 902      17.525  20.556   7.150  1.00 29.59    -0.271 OA
HETATM   17  N2  MK1 B 902      15.443  21.213   7.614  1.00 22.29    -0.351 N 
HETATM   18  H2  MK1 B 902      14.472  21.071   7.336  1.00  0.00     0.163 HD
BRANCH  17  19
HETATM   19  C4  MK1 B 902      15.627  22.097   8.721  1.00 23.47     0.022 C 
HETATM   20  C7  MK1 B 902      15.414  21.457  10.023  1.00 22.75     0.037 C 
HETATM   21  C5  MK1 B 902      14.523  23.166   8.630  1.00 27.66     0.037 C 
HETATM   22  C6  MK1 B 902      16.877  22.695   8.744  1.00 21.71     0.037 C 
ENDBRANCH  17  19
ENDBRANCH   3  15
BRANCH   4  23
HETATM   23  C10 MK1 B 902      14.235  21.473   4.736  1.00 20.86     0.149 C 
BRANCH  23  24
HETATM   24  C11 MK1 B 902      14.573  22.937   5.021  1.00 21.68     0.136 C 
BRANCH  24  25
HETATM   25  O2  MK1 B 902      15.661  22.988   4.147  1.00 15.87    -0.394 OA
HETATM   26  H2  MK1 B 902      15.531  23.721   3.558  1.00  0.00     0.210 HD
ENDBRANCH  24  25
BRANCH  24  27
HETATM   27  C12 MK1 B 902      13.642  24.119   4.690  1.00 21.49     0.047 C 
BRANCH  27  28
HETATM   28  C13 MK1 B 902      12.189  24.131   5.185  1.00 26.89     0.084 C 
BRANCH  28  29
HETATM   29  C21 MK1 B 902      11.211  23.692   4.102  1.00 29.35     0.222 C 
HETATM   30  N4  MK1 B 902      10.173  24.502   3.909  1.00 31.19    -0.350 N 
HETATM   31  H4  MK1 B 902       9.953  25.206   4.614  1.00  0.00     0.163 HD
HETATM   32  O3  MK1 B 902      11.457  22.706   3.391  1.00 32.66    -0.273 OA
BRANCH  30  33
HETATM   33  C22 MK1 B 902       9.346  24.409   2.718  1.00 29.22     0.147 C 
HETATM   34  C30 MK1 B 902       7.844  24.059   2.889  1.00 31.86    -0.027 A 
HETATM   35  C29 MK1 B 902       7.170  23.227   3.725  1.00 27.70     0.010 A 
HETATM   36  C25 MK1 B 902       6.968  24.848   1.875  1.00 31.29    -0.047 A 
HETATM   37  C28 MK1 B 902       5.789  23.101   3.671  1.00 29.01     0.001 A 
HETATM   38  C27 MK1 B 902       5.007  23.828   2.761  1.00 28.00     0.001 A 
HETATM   39  C26 MK1 B 902       5.600  24.712   1.852  1.00 32.00     0.008 A 
HETATM   40  C24 MK1 B 902       8.013  25.663   1.153  1.00 32.05     0.073 C 
HETATM   41  C23 MK1 B 902       9.290  25.724   1.959  1.00 28.82     0.149 C 
BRANCH  41  42
HETATM   42  O4  MK1 B 902       9.350  26.817   2.863  1.00 28.32    -0.393 OA
HETATM   43  H4  MK1 B 902       9.634  26.520   3.720  1.00  0.00     0.210 HD
ENDBRANCH  41  42
ENDBRANCH  30  33
ENDBRANCH  28  29
BRANCH  28  44
HETATM   44  C14 MK1 B 902      11.764  25.514   5.710  1.00 28.67     0.052 C 
BRANCH  44  45
HETATM   45  C15 MK1 B 902      11.235  25.457   7.095  1.00 26.89    -0.057 A 
HETATM   46  C16 MK1 B 902       9.960  24.973   7.395  1.00 29.22     0.007 A 
HETATM   47  C17 MK1 B 902       9.493  24.973   8.701  1.00 29.22     0.001 A 
HETATM   48  C18 MK1 B 902      10.320  25.468   9.711  1.00 30.97     0.000 A 
HETATM   49  C19 MK1 B 902      11.603  25.947   9.416  1.00 29.25     0.001 A 
HETATM   50  C20 MK1 B 902      12.058  25.940   8.098  1.00 29.96     0.007 A 
ENDBRANCH  44  45
ENDBRANCH  28  44
ENDBRANCH  27  28
ENDBRANCH  24  27
ENDBRANCH  23  24
ENDBRANCH   4  23
TORSDOF 14
ENDMDL
MODEL 11
REMARK VINA RESULT:      -9.5      2.548     10.898
REMARK  14 active torsions:
REMARK  status: ('A' for Active; 'I' for Inactive)
REMARK    1  A    between atoms: N1_1  and  C31_43 
REMARK    2  A    between atoms: C2_3  and  C3_4 
REMARK       I    between atoms: C3_4  and  N2_6 
REMARK    3  A    between atoms: N2_6  and  C4_8 
REMARK    4  A    between atoms: N3_12  and  C10_15 
REMARK    5  A    between atoms: C10_15  and  C11_16 
REMARK    6  A    between atoms: C11_16  and  O2_17 
REMARK    7  A    between atoms: C11_16  and  C12_19 
REMARK    8  A    between atoms: C12_19  and  C13_20 
REMARK    9  A    between atoms: C13_20  and  C21_28 
REMARK   10  A    between atoms: C13_20  and  C14_21 
REMARK   11  A    between atoms: C14_21  and  C15_22 
REMARK       I    between atoms: C21_28  and  N4_30 
REMARK   12  A    between atoms: N4_30  and  C22_32 
REMARK   13  A    between atoms: C23_33  and  O4_34 
REMARK   14  A    between atoms: C31_43  and  C32_44 
ROOT
HETATM    1  N1  MK1 B 902      18.157  18.963   9.667  1.00 28.25     0.096 N 
HETATM    2  C1  MK1 B 902      18.080  18.817   8.189  1.00 30.30     0.307 C 
HETATM    3  C2  MK1 B 902      17.923  20.023   7.284  1.00 27.27     0.200 C 
HETATM    4  N3  MK1 B 902      16.645  20.627   7.800  1.00 28.91    -0.395 N 
HETATM    5  C8  MK1 B 902      16.410  20.668   9.265  1.00 26.24     0.148 C 
HETATM    6  C9  MK1 B 902      16.952  19.520  10.093  1.00 27.47     0.292 C 
ENDROOT
BRANCH   1   7
HETATM    7  C31 MK1 B 902      18.600  17.794  10.436  1.00 36.25     0.312 C 
BRANCH   7   8
HETATM    8  C32 MK1 B 902      17.658  17.076  11.410  1.00 42.75    -0.015 A 
HETATM    9  C36 MK1 B 902      18.187  16.641  12.607  1.00 44.71     0.011 A 
HETATM   10  C35 MK1 B 902      17.342  15.970  13.487  1.00 49.34     0.018 A 
HETATM   11  C34 MK1 B 902      16.004  15.756  13.142  1.00 50.60     0.087 A 
HETATM   12  N5  MK1 B 902      15.392  16.162  11.957  1.00 51.38    -0.375 N 
HETATM   13  C33 MK1 B 902      16.307  16.829  11.127  1.00 47.41     0.096 A 
HETATM   14  H5  MK1 B 902      14.413  15.996  11.725  1.00  0.00     0.164 HD
ENDBRANCH   7   8
ENDBRANCH   1   7
BRANCH   3  15
HETATM   15  C3  MK1 B 902      17.815  19.539   5.863  1.00 28.85     0.242 C 
HETATM   16  O1  MK1 B 902      18.715  19.763   5.064  1.00 29.59    -0.271 OA
HETATM   17  N2  MK1 B 902      16.717  18.888   5.535  1.00 22.29    -0.351 N 
HETATM   18  H2  MK1 B 902      16.017  18.828   6.275  1.00  0.00     0.163 HD
BRANCH  17  19
HETATM   19  C4  MK1 B 902      16.349  18.253   4.309  1.00 23.47     0.022 C 
HETATM   20  C7  MK1 B 902      15.922  19.194   3.268  1.00 22.75     0.037 C 
HETATM   21  C5  MK1 B 902      15.098  17.405   4.600  1.00 27.66     0.037 C 
HETATM   22  C6  MK1 B 902      17.355  17.463   3.777  1.00 21.71     0.037 C 
ENDBRANCH  17  19
ENDBRANCH   3  15
BRANCH   4  23
HETATM   23  C10 MK1 B 902      16.213  21.881   7.216  1.00 20.86     0.149 C 
BRANCH  23  24
HETATM   24  C11 MK1 B 902      15.370  22.749   8.151  1.00 21.68     0.136 C 
BRANCH  24  25
HETATM   25  O2  MK1 B 902      16.064  23.931   7.888  1.00 15.87    -0.394 OA
HETATM   26  H2  MK1 B 902      15.864  24.197   6.998  1.00  0.00     0.210 HD
ENDBRANCH  24  25
BRANCH  24  27
HETATM   27  C12 MK1 B 902      13.868  23.026   7.953  1.00 21.49     0.047 C 
BRANCH  27  28
HETATM   28  C13 MK1 B 902      13.310  23.350   6.560  1.00 26.89     0.084 C 
BRANCH  28  29
HETATM   29  C21 MK1 B 902      12.608  24.702   6.524  1.00 29.35     0.222 C 
HETATM   30  N4  MK1 B 902      11.627  24.858   7.409  1.00 31.19    -0.350 N 
HETATM   31  H4  MK1 B 902      11.243  24.038   7.877  1.00  0.00     0.163 HD
HETATM   32  O3  MK1 B 902      13.023  25.609   5.787  1.00 32.66    -0.273 OA
BRANCH  30  33
HETATM   33  C22 MK1 B 902      11.091  26.171   7.726  1.00 29.22     0.147 C 
HETATM   34  C30 MK1 B 902       9.899  26.703   6.888  1.00 31.86    -0.027 A 
HETATM   35  C29 MK1 B 902       9.571  26.612   5.572  1.00 27.70     0.010 A 
HETATM   36  C25 MK1 B 902       8.899  27.496   7.777  1.00 31.29    -0.047 A 
HETATM   37  C28 MK1 B 902       8.414  27.189   5.067  1.00 29.01     0.001 A 
HETATM   38  C27 MK1 B 902       7.512  27.890   5.881  1.00 28.00     0.001 A 
HETATM   39  C26 MK1 B 902       7.754  28.047   7.251  1.00 32.00     0.008 A 
HETATM   40  C24 MK1 B 902       9.548  27.371   9.133  1.00 32.05     0.073 C 
HETATM   41  C23 MK1 B 902      10.547  26.237   9.143  1.00 28.82     0.149 C 
BRANCH  41  42
HETATM   42  O4  MK1 B 902       9.992  24.984   9.516  1.00 28.32    -0.393 OA
HETATM   43  H4  MK1 B 902       9.666  24.527   8.749  1.00  0.00     0.210 HD
ENDBRANCH  41  42
ENDBRANCH  30  33
ENDBRANCH  28  29
BRANCH  28  44
HETATM   44  C14 MK1 B 902      12.337  22.270   6.056  1.00 28.67     0.052 C 
BRANCH  44  45
HETATM   45  C15 MK1 B 902      11.677  22.649   4.782  1.00 26.89    -0.057 A 
HETATM   46  C16 MK1 B 902      12.389  22.859   3.599  1.00 29.22     0.007 A 
HETATM   47  C17 MK1 B 902      11.735  23.249   2.440  1.00 29.22     0.001 A 
HETATM   48  C18 MK1 B 902      10.350  23.430   2.477  1.00 30.97     0.000 A 
HETATM   49  C19 MK1 B 902       9.631  23.213   3.659  1.00 29.25     0.001 A 
HETATM   50  C20 MK1 B 902      10.303  22.821   4.817  1.00 29.96     0.007 A 
ENDBRANCH  44  45
ENDBRANCH  28  44
ENDBRANCH  27  28
ENDBRANCH  24  27
ENDBRANCH  23  24
ENDBRANCH   4  23
TORSDOF 14
ENDMDL
MODEL 12
REMARK VINA RESULT:      -9.2      2.054     10.618
REMARK  14 active torsions:
REMARK  status: ('A' for Active; 'I' for Inactive)
REMARK    1  A    between atoms: N1_1  and  C31_43 
REMARK    2  A    between atoms: C2_3  and  C3_4 
REMARK       I    between atoms: C3_4  and  N2_6 
REMARK    3  A    between atoms: N2_6  and  C4_8 
REMARK    4  A    between atoms: N3_12  and  C10_15 
REMARK    5  A    between atoms: C10_15  and  C11_16 
REMARK    6  A    between atoms: C11_16  and  O2_17 
REMARK    7  A    between atoms: C11_16  and  C12_19 
REMARK    8  A    between atoms: C12_19  and  C13_20 
REMARK    9  A    between atoms: C13_20  and  C21_28 
REMARK   10  A    between atoms: C13_20  and  C14_21 
REMARK   11  A    between atoms: C14_21  and  C15_22 
REMARK       I    between atoms: C21_28  and  N4_30 
REMARK   12  A    between atoms: N4_30  and  C22_32 
REMARK   13  A    between atoms: C23_33  and  O4_34 
REMARK   14  A    between atoms: C31_43  and  C32_44 
ROOT
HETATM    1  N1  MK1 B 902      17.243  18.525   4.461  1.00 28.25     0.096 N 
HETATM    2  C1  MK1 B 902      17.002  19.690   5.354  1.00 30.30     0.307 C 
HETATM    3  C2  MK1 B 902      15.597  20.157   5.678  1.00 27.27     0.200 C 
HETATM    4  N3  MK1 B 902      15.048  20.448   4.308  1.00 28.91    -0.395 N 
HETATM    5  C8  MK1 B 902      15.364  19.517   3.195  1.00 26.24     0.148 C 
HETATM    6  C9  MK1 B 902      16.723  18.846   3.208  1.00 27.47     0.292 C 
ENDROOT
BRANCH   1   7
HETATM    7  C31 MK1 B 902      18.600  17.966   4.438  1.00 36.25     0.312 C 
BRANCH   7   8
HETATM    8  C32 MK1 B 902      18.999  16.799   5.349  1.00 42.75    -0.015 A 
HETATM    9  C36 MK1 B 902      19.003  17.022   6.710  1.00 44.71     0.011 A 
HETATM   10  C35 MK1 B 902      19.383  15.972   7.542  1.00 49.34     0.018 A 
HETATM   11  C34 MK1 B 902      19.748  14.741   6.988  1.00 50.60     0.087 A 
HETATM   12  N5  MK1 B 902      19.772  14.433   5.628  1.00 51.38    -0.375 N 
HETATM   13  C33 MK1 B 902      19.376  15.540   4.860  1.00 47.41     0.096 A 
HETATM   14  H5  MK1 B 902      20.041  13.528   5.244  1.00  0.00     0.164 HD
ENDBRANCH   7   8
ENDBRANCH   1   7
BRANCH   3  15
HETATM   15  C3  MK1 B 902      15.693  21.382   6.547  1.00 28.85     0.242 C 
HETATM   16  O1  MK1 B 902      15.997  22.463   6.060  1.00 29.59    -0.271 OA
HETATM   17  N2  MK1 B 902      15.450  21.223   7.833  1.00 22.29    -0.351 N 
HETATM   18  H2  MK1 B 902      15.275  20.260   8.121  1.00  0.00     0.163 HD
BRANCH  17  19
HETATM   19  C4  MK1 B 902      15.393  22.184   8.889  1.00 23.47     0.022 C 
HETATM   20  C7  MK1 B 902      16.657  22.898   9.099  1.00 22.75     0.037 C 
HETATM   21  C5  MK1 B 902      15.168  21.402  10.196  1.00 27.66     0.037 C 
HETATM   22  C6  MK1 B 902      14.397  23.131   8.716  1.00 21.71     0.037 C 
ENDBRANCH  17  19
ENDBRANCH   3  15
BRANCH   4  23
HETATM   23  C10 MK1 B 902      13.657  20.843   4.213  1.00 20.86     0.149 C 
BRANCH  23  24
HETATM   24  C11 MK1 B 902      13.447  22.332   3.934  1.00 21.68     0.136 C 
BRANCH  24  25
HETATM   25  O2  MK1 B 902      14.756  22.567   3.508  1.00 15.87    -0.394 OA
HETATM   26  H2  MK1 B 902      15.326  22.512   4.267  1.00  0.00     0.210 HD
ENDBRANCH  24  25
BRANCH  24  27
HETATM   27  C12 MK1 B 902      12.492  22.884   2.860  1.00 21.49     0.047 C 
BRANCH  27  28
HETATM   28  C13 MK1 B 902      11.364  23.854   3.241  1.00 26.89     0.084 C 
BRANCH  28  29
HETATM   29  C21 MK1 B 902      11.808  24.864   4.293  1.00 29.35     0.222 C 
HETATM   30  N4  MK1 B 902      10.848  25.302   5.103  1.00 31.19    -0.350 N 
HETATM   31  H4  MK1 B 902       9.873  25.148   4.849  1.00  0.00     0.163 HD
HETATM   32  O3  MK1 B 902      13.008  25.148   4.429  1.00 32.66    -0.273 OA
BRANCH  30  33
HETATM   33  C22 MK1 B 902      11.157  25.996   6.342  1.00 29.22     0.147 C 
HETATM   34  C30 MK1 B 902      10.027  26.800   7.039  1.00 31.86    -0.027 A 
HETATM   35  C29 MK1 B 902       9.005  27.565   6.573  1.00 27.70     0.010 A 
HETATM   36  C25 MK1 B 902      10.123  26.674   8.586  1.00 31.29    -0.047 A 
HETATM   37  C28 MK1 B 902       8.108  28.185   7.433  1.00 29.01     0.001 A 
HETATM   38  C27 MK1 B 902       8.196  28.052   8.827  1.00 28.00     0.001 A 
HETATM   39  C26 MK1 B 902       9.213  27.290   9.413  1.00 32.00     0.008 A 
HETATM   40  C24 MK1 B 902      11.316  25.762   8.733  1.00 32.05     0.073 C 
HETATM   41  C23 MK1 B 902      11.598  25.039   7.437  1.00 28.82     0.149 C 
BRANCH  41  42
HETATM   42  O4  MK1 B 902      10.918  23.799   7.309  1.00 28.32    -0.393 OA
HETATM   43  H4  MK1 B 902      10.226  23.868   6.661  1.00  0.00     0.210 HD
ENDBRANCH  41  42
ENDBRANCH  30  33
ENDBRANCH  28  29
BRANCH  28  44
HETATM   44  C14 MK1 B 902      10.113  23.120   3.754  1.00 28.67     0.052 C 
BRANCH  44  45
HETATM   45  C15 MK1 B 902       8.860  23.652   3.162  1.00 26.89    -0.057 A 
HETATM   46  C16 MK1 B 902       8.851  24.690   2.227  1.00 29.22     0.007 A 
HETATM   47  C17 MK1 B 902       7.653  25.181   1.727  1.00 29.22     0.001 A 
HETATM   48  C18 MK1 B 902       6.457  24.619   2.178  1.00 30.97     0.000 A 
HETATM   49  C19 MK1 B 902       6.461  23.574   3.109  1.00 29.25     0.001 A 
HETATM   50  C20 MK1 B 902       7.673  23.090   3.601  1.00 29.96     0.007 A 
ENDBRANCH  44  45
ENDBRANCH  28  44
ENDBRANCH  27  28
ENDBRANCH  24  27
ENDBRANCH  23  24
ENDBRANCH   4  23
TORSDOF 14
ENDMDL
MODEL 13
REMARK VINA RESULT:      -9.2      2.724     11.320
REMARK  14 active torsions:
REMARK  status: ('A' for Active; 'I' for Inactive)
REMARK    1  A    between atoms: N1_1  and  C31_43 
REMARK    2  A    between atoms: C2_3  and  C3_4 
REMARK       I    between atoms: C3_4  and  N2_6 
REMARK    3  A    between atoms: N2_6  and  C4_8 
REMARK    4  A    between atoms: N3_12  and  C10_15 
REMARK    5  A    between atoms: C10_15  and  C11_16 
REMARK    6  A    between atoms: C11_16  and  O2_17 
REMARK    7  A    between atoms: C11_16  and  C12_19 
REMARK    8  A    between atoms: C12_19  and  C13_20 
REMARK    9  A    between atoms: C13_20  and  C21_28 
REMARK   10  A    between atoms: C13_20  and  C14_21 
REMARK   11  A    between atoms: C14_21  and  C15_22 
REMARK       I    between atoms: C21_28  and  N4_30 
REMARK   12  A    between atoms: N4_30  and  C22_32 
REMARK   13  A    between atoms: C23_33  and  O4_34 
REMARK   14  A    between atoms: C31_43  and  C32_44 
ROOT
HETATM    1  N1  MK1 B 902      18.209  19.219  10.143  1.00 28.25     0.096 N 
HETATM    2  C1  MK1 B 902      18.225  18.958   8.678  1.00 30.30     0.307 C 
HETATM    3  C2  MK1 B 902      18.072  20.084   7.675  1.00 27.27     0.200 C 
HETATM    4  N3  MK1 B 902      16.742  20.667   8.071  1.00 28.91    -0.395 N 
HETATM    5  C8  MK1 B 902      16.421  20.807   9.514  1.00 26.24     0.148 C 
HETATM    6  C9  MK1 B 902      16.959  19.751  10.457  1.00 27.47     0.292 C 
ENDROOT
BRANCH   1   7
HETATM    7  C31 MK1 B 902      18.654  18.132  11.024  1.00 36.25     0.312 C 
BRANCH   7   8
HETATM    8  C32 MK1 B 902      19.728  18.360  12.094  1.00 42.75    -0.015 A 
HETATM    9  C36 MK1 B 902      19.619  19.488  12.879  1.00 44.71     0.011 A 
HETATM   10  C35 MK1 B 902      20.603  19.711  13.839  1.00 49.34     0.018 A 
HETATM   11  C34 MK1 B 902      21.659  18.805  13.979  1.00 50.60     0.087 A 
HETATM   12  N5  MK1 B 902      21.843  17.645  13.229  1.00 51.38    -0.375 N 
HETATM   13  C33 MK1 B 902      20.812  17.492  12.287  1.00 47.41     0.096 A 
HETATM   14  H5  MK1 B 902      22.620  16.996  13.347  1.00  0.00     0.164 HD
ENDBRANCH   7   8
ENDBRANCH   1   7
BRANCH   3  15
HETATM   15  C3  MK1 B 902      18.067  19.490   6.293  1.00 28.85     0.242 C 
HETATM   16  O1  MK1 B 902      18.170  20.212   5.309  1.00 29.59    -0.271 OA
HETATM   17  N2  MK1 B 902      17.934  18.181   6.205  1.00 22.29    -0.351 N 
HETATM   18  H2  MK1 B 902      17.789  17.704   7.095  1.00  0.00     0.163 HD
BRANCH  17  19
HETATM   19  C4  MK1 B 902      17.960  17.324   5.063  1.00 23.47     0.022 C 
HETATM   20  C7  MK1 B 902      16.627  16.987   4.552  1.00 22.75     0.037 C 
HETATM   21  C5  MK1 B 902      18.548  15.978   5.525  1.00 27.66     0.037 C 
HETATM   22  C6  MK1 B 902      18.699  17.836   4.009  1.00 21.71     0.037 C 
ENDBRANCH  17  19
ENDBRANCH   3  15
BRANCH   4  23
HETATM   23  C10 MK1 B 902      16.294  21.853   7.369  1.00 20.86     0.149 C 
BRANCH  23  24
HETATM   24  C11 MK1 B 902      15.537  22.851   8.246  1.00 21.68     0.136 C 
BRANCH  24  25
HETATM   25  O2  MK1 B 902      16.422  23.908   8.028  1.00 15.87    -0.394 OA
HETATM   26  H2  MK1 B 902      16.917  23.719   7.239  1.00  0.00     0.210 HD
ENDBRANCH  24  25
BRANCH  24  27
HETATM   27  C12 MK1 B 902      14.112  23.355   7.949  1.00 21.49     0.047 C 
BRANCH  27  28
HETATM   28  C13 MK1 B 902      13.647  23.577   6.503  1.00 26.89     0.084 C 
BRANCH  28  29
HETATM   29  C21 MK1 B 902      12.817  24.847   6.357  1.00 29.35     0.222 C 
HETATM   30  N4  MK1 B 902      11.932  25.064   7.326  1.00 31.19    -0.350 N 
HETATM   31  H4  MK1 B 902      11.684  24.300   7.954  1.00  0.00     0.163 HD
HETATM   32  O3  MK1 B 902      13.057  25.657   5.449  1.00 32.66    -0.273 OA
BRANCH  30  33
HETATM   33  C22 MK1 B 902      11.310  26.364   7.511  1.00 29.22     0.147 C 
HETATM   34  C30 MK1 B 902      10.013  26.681   6.721  1.00 31.86    -0.027 A 
HETATM   35  C29 MK1 B 902       9.591  26.380   5.464  1.00 27.70     0.010 A 
HETATM   36  C25 MK1 B 902       9.021  27.513   7.582  1.00 31.29    -0.047 A 
HETATM   37  C28 MK1 B 902       8.352  26.791   4.993  1.00 29.01     0.001 A 
HETATM   38  C27 MK1 B 902       7.459  27.530   5.785  1.00 28.00     0.001 A 
HETATM   39  C26 MK1 B 902       7.795  27.897   7.093  1.00 32.00     0.008 A 
HETATM   40  C24 MK1 B 902       9.785  27.631   8.878  1.00 32.05     0.073 C 
HETATM   41  C23 MK1 B 902      10.876  26.588   8.950  1.00 28.82     0.149 C 
BRANCH  41  42
HETATM   42  O4  MK1 B 902      10.464  25.362   9.536  1.00 28.32    -0.393 OA
HETATM   43  H4  MK1 B 902       9.697  25.024   9.088  1.00  0.00     0.210 HD
ENDBRANCH  41  42
ENDBRANCH  30  33
ENDBRANCH  28  29
BRANCH  28  44
HETATM   44  C14 MK1 B 902      12.835  22.388   5.962  1.00 28.67     0.052 C 
BRANCH  44  45
HETATM   45  C15 MK1 B 902      13.581  21.608   4.942  1.00 26.89    -0.057 A 
HETATM   46  C16 MK1 B 902      13.670  22.007   3.607  1.00 29.22     0.007 A 
HETATM   47  C17 MK1 B 902      14.347  21.229   2.680  1.00 29.22     0.001 A 
HETATM   48  C18 MK1 B 902      14.937  20.036   3.106  1.00 30.97     0.000 A 
HETATM   49  C19 MK1 B 902      14.857  19.636   4.446  1.00 29.25     0.001 A 
HETATM   50  C20 MK1 B 902      14.173  20.431   5.366  1.00 29.96     0.007 A 
ENDBRANCH  44  45
ENDBRANCH  28  44
ENDBRANCH  27  28
ENDBRANCH  24  27
ENDBRANCH  23  24
ENDBRANCH   4  23
TORSDOF 14
ENDMDL
MODEL 14
REMARK VINA RESULT:      -9.2      2.026     10.515
REMARK  14 active torsions:
REMARK  status: ('A' for Active; 'I' for Inactive)
REMARK    1  A    between atoms: N1_1  and  C31_43 
REMARK    2  A    between atoms: C2_3  and  C3_4 
REMARK       I    between atoms: C3_4  and  N2_6 
REMARK    3  A    between atoms: N2_6  and  C4_8 
REMARK    4  A    between atoms: N3_12  and  C10_15 
REMARK    5  A    between atoms: C10_15  and  C11_16 
REMARK    6  A    between atoms: C11_16  and  O2_17 
REMARK    7  A    between atoms: C11_16  and  C12_19 
REMARK    8  A    between atoms: C12_19  and  C13_20 
REMARK    9  A    between atoms: C13_20  and  C21_28 
REMARK   10  A    between atoms: C13_20  and  C14_21 
REMARK   11  A    between atoms: C14_21  and  C15_22 
REMARK       I    between atoms: C21_28  and  N4_30 
REMARK   12  A    between atoms: N4_30  and  C22_32 
REMARK   13  A    between atoms: C23_33  and  O4_34 
REMARK   14  A    between atoms: C31_43  and  C32_44 
ROOT
HETATM    1  N1  MK1 B 902      14.824  19.875   4.090  1.00 28.25     0.096 N 
HETATM    2  C1  MK1 B 902      15.357  20.202   5.440  1.00 30.30     0.307 C 
HETATM    3  C2  MK1 B 902      14.961  21.477   6.157  1.00 27.27     0.200 C 
HETATM    4  N3  MK1 B 902      15.398  22.529   5.173  1.00 28.91    -0.395 N 
HETATM    5  C8  MK1 B 902      15.165  22.298   3.725  1.00 26.24     0.148 C 
HETATM    6  C9  MK1 B 902      15.260  20.873   3.219  1.00 27.47     0.292 C 
ENDROOT
BRANCH   1   7
HETATM    7  C31 MK1 B 902      15.021  18.505   3.603  1.00 36.25     0.312 C 
BRANCH   7   8
HETATM    8  C32 MK1 B 902      16.352  17.770   3.803  1.00 42.75    -0.015 A 
HETATM    9  C36 MK1 B 902      16.550  17.120   5.002  1.00 44.71     0.011 A 
HETATM   10  C35 MK1 B 902      17.764  16.467   5.198  1.00 49.34     0.018 A 
HETATM   11  C34 MK1 B 902      18.737  16.489   4.193  1.00 50.60     0.087 A 
HETATM   12  N5  MK1 B 902      18.617  17.121   2.956  1.00 51.38    -0.375 N 
HETATM   13  C33 MK1 B 902      17.368  17.752   2.837  1.00 47.41     0.096 A 
HETATM   14  H5  MK1 B 902      19.339  17.124   2.235  1.00  0.00     0.164 HD
ENDBRANCH   7   8
ENDBRANCH   1   7
BRANCH   3  15
HETATM   15  C3  MK1 B 902      15.711  21.541   7.460  1.00 28.85     0.242 C 
HETATM   16  O1  MK1 B 902      15.426  22.389   8.296  1.00 29.59    -0.271 OA
HETATM   17  N2  MK1 B 902      16.678  20.662   7.637  1.00 22.29    -0.351 N 
HETATM   18  H2  MK1 B 902      16.858  20.056   6.837  1.00  0.00     0.163 HD
BRANCH  17  19
HETATM   19  C4  MK1 B 902      17.513  20.423   8.770  1.00 23.47     0.022 C 
HETATM   20  C7  MK1 B 902      18.482  21.495   9.021  1.00 22.75     0.037 C 
HETATM   21  C5  MK1 B 902      18.376  19.191   8.440  1.00 27.66     0.037 C 
HETATM   22  C6  MK1 B 902      16.803  20.214   9.942  1.00 21.71     0.037 C 
ENDBRANCH  17  19
ENDBRANCH   3  15
BRANCH   4  23
HETATM   23  C10 MK1 B 902      15.092  23.910   5.487  1.00 20.86     0.149 C 
BRANCH  23  24
HETATM   24  C11 MK1 B 902      13.662  24.328   5.141  1.00 21.68     0.136 C 
BRANCH  24  25
HETATM   25  O2  MK1 B 902      14.013  25.590   4.659  1.00 15.87    -0.394 OA
HETATM   26  H2  MK1 B 902      13.712  25.656   3.760  1.00  0.00     0.210 HD
ENDBRANCH  24  25
BRANCH  24  27
HETATM   27  C12 MK1 B 902      12.793  23.636   4.075  1.00 21.49     0.047 C 
BRANCH  27  28
HETATM   28  C13 MK1 B 902      11.489  24.284   3.588  1.00 26.89     0.084 C 
BRANCH  28  29
HETATM   29  C21 MK1 B 902      10.535  24.586   4.738  1.00 29.35     0.222 C 
HETATM   30  N4  MK1 B 902      10.064  25.829   4.777  1.00 31.19    -0.350 N 
HETATM   31  H4  MK1 B 902      10.522  26.553   4.223  1.00  0.00     0.163 HD
HETATM   32  O3  MK1 B 902      10.156  23.681   5.497  1.00 32.66    -0.273 OA
BRANCH  30  33
HETATM   33  C22 MK1 B 902       8.914  26.182   5.592  1.00 29.22     0.147 C 
HETATM   34  C30 MK1 B 902       9.159  26.659   7.048  1.00 31.86    -0.027 A 
HETATM   35  C29 MK1 B 902      10.043  26.292   8.012  1.00 27.70     0.010 A 
HETATM   36  C25 MK1 B 902       8.169  27.792   7.440  1.00 31.29    -0.047 A 
HETATM   37  C28 MK1 B 902      10.055  26.899   9.261  1.00 29.01     0.001 A 
HETATM   38  C27 MK1 B 902       9.165  27.930   9.598  1.00 28.00     0.001 A 
HETATM   39  C26 MK1 B 902       8.211  28.383   8.681  1.00 32.00     0.008 A 
HETATM   40  C24 MK1 B 902       7.383  27.952   6.161  1.00 32.05     0.073 C 
HETATM   41  C23 MK1 B 902       8.129  27.339   4.998  1.00 28.82     0.149 C 
BRANCH  41  42
HETATM   42  O4  MK1 B 902       9.005  28.240   4.337  1.00 28.32    -0.393 OA
HETATM   43  H4  MK1 B 902       8.625  28.524   3.513  1.00  0.00     0.210 HD
ENDBRANCH  41  42
ENDBRANCH  30  33
ENDBRANCH  28  29
BRANCH  28  44
HETATM   44  C14 MK1 B 902      10.758  23.415   2.550  1.00 28.67     0.052 C 
BRANCH  44  45
HETATM   45  C15 MK1 B 902       9.416  23.950   2.206  1.00 26.89    -0.057 A 
HETATM   46  C16 MK1 B 902       9.228  25.231   1.684  1.00 29.22     0.007 A 
HETATM   47  C17 MK1 B 902       7.953  25.703   1.411  1.00 29.22     0.001 A 
HETATM   48  C18 MK1 B 902       6.859  24.873   1.670  1.00 30.97     0.000 A 
HETATM   49  C19 MK1 B 902       7.044  23.584   2.185  1.00 29.25     0.001 A 
HETATM   50  C20 MK1 B 902       8.333  23.124   2.454  1.00 29.96     0.007 A 
ENDBRANCH  44  45
ENDBRANCH  28  44
ENDBRANCH  27  28
ENDBRANCH  24  27
ENDBRANCH  23  24
ENDBRANCH   4  23
TORSDOF 14
ENDMDL
MODEL 15
REMARK VINA RESULT:      -9.0      2.329     10.350
REMARK  14 active torsions:
REMARK  status: ('A' for Active; 'I' for Inactive)
REMARK    1  A    between atoms: N1_1  and  C31_43 
REMARK    2  A    between atoms: C2_3  and  C3_4 
REMARK       I    between atoms: C3_4  and  N2_6 
REMARK    3  A    between atoms: N2_6  and  C4_8 
REMARK    4  A    between atoms: N3_12  and  C10_15 
REMARK    5  A    between atoms: C10_15  and  C11_16 
REMARK    6  A    between atoms: C11_16  and  O2_17 
REMARK    7  A    between atoms: C11_16  and  C12_19 
REMARK    8  A    between atoms: C12_19  and  C13_20 
REMARK    9  A    between atoms: C13_20  and  C21_28 
REMARK   10  A    between atoms: C13_20  and  C14_21 
REMARK   11  A    between atoms: C14_21  and  C15_22 
REMARK       I    between atoms: C21_28  and  N4_30 
REMARK   12  A    between atoms: N4_30  and  C22_32 
REMARK   13  A    between atoms: C23_33  and  O4_34 
REMARK   14  A    between atoms: C31_43  and  C32_44 
ROOT
HETATM    1  N1  MK1 B 902      18.009  19.476   9.753  1.00 28.25     0.096 N 
HETATM    2  C1  MK1 B 902      17.974  19.172   8.297  1.00 30.30     0.307 C 
HETATM    3  C2  MK1 B 902      17.650  20.243   7.275  1.00 27.27     0.200 C 
HETATM    4  N3  MK1 B 902      16.289  20.696   7.729  1.00 28.91    -0.395 N 
HETATM    5  C8  MK1 B 902      16.031  20.848   9.183  1.00 26.24     0.148 C 
HETATM    6  C9  MK1 B 902      16.728  19.885  10.123  1.00 27.47     0.292 C 
ENDROOT
BRANCH   1   7
HETATM    7  C31 MK1 B 902      18.612  18.470  10.635  1.00 36.25     0.312 C 
BRANCH   7   8
HETATM    8  C32 MK1 B 902      17.749  17.467  11.409  1.00 42.75    -0.015 A 
HETATM    9  C36 MK1 B 902      18.352  16.750  12.420  1.00 44.71     0.011 A 
HETATM   10  C35 MK1 B 902      17.579  15.822  13.114  1.00 49.34     0.018 A 
HETATM   11  C34 MK1 B 902      16.235  15.642  12.773  1.00 50.60     0.087 A 
HETATM   12  N5  MK1 B 902      15.550  16.323  11.768  1.00 51.38    -0.375 N 
HETATM   13  C33 MK1 B 902      16.396  17.237  11.119  1.00 47.41     0.096 A 
HETATM   14  H5  MK1 B 902      14.567  16.177  11.535  1.00  0.00     0.164 HD
ENDBRANCH   7   8
ENDBRANCH   1   7
BRANCH   3  15
HETATM   15  C3  MK1 B 902      17.635  19.608   5.911  1.00 28.85     0.242 C 
HETATM   16  O1  MK1 B 902      18.583  19.755   5.150  1.00 29.59    -0.271 OA
HETATM   17  N2  MK1 B 902      16.562  18.914   5.586  1.00 22.29    -0.351 N 
HETATM   18  H2  MK1 B 902      15.816  18.927   6.283  1.00  0.00     0.163 HD
BRANCH  17  19
HETATM   19  C4  MK1 B 902      16.276  18.148   4.415  1.00 23.47     0.022 C 
HETATM   20  C7  MK1 B 902      15.040  17.364   4.516  1.00 22.75     0.037 C 
HETATM   21  C5  MK1 B 902      17.392  17.096   4.283  1.00 27.66     0.037 C 
HETATM   22  C6  MK1 B 902      16.196  18.914   3.264  1.00 21.71     0.037 C 
ENDBRANCH  17  19
ENDBRANCH   3  15
BRANCH   4  23
HETATM   23  C10 MK1 B 902      15.682  21.806   7.023  1.00 20.86     0.149 C 
BRANCH  23  24
HETATM   24  C11 MK1 B 902      15.227  22.951   7.929  1.00 21.68     0.136 C 
BRANCH  24  25
HETATM   25  O2  MK1 B 902      16.514  23.418   8.200  1.00 15.87    -0.394 OA
HETATM   26  H2  MK1 B 902      16.771  24.000   7.494  1.00  0.00     0.210 HD
ENDBRANCH  24  25
BRANCH  24  27
HETATM   27  C12 MK1 B 902      14.379  24.145   7.453  1.00 21.49     0.047 C 
BRANCH  27  28
HETATM   28  C13 MK1 B 902      12.904  24.269   7.861  1.00 26.89     0.084 C 
BRANCH  28  29
HETATM   29  C21 MK1 B 902      11.968  23.669   6.818  1.00 29.35     0.222 C 
HETATM   30  N4  MK1 B 902      11.654  24.472   5.805  1.00 31.19    -0.350 N 
HETATM   31  H4  MK1 B 902      11.836  25.472   5.887  1.00  0.00     0.163 HD
HETATM   32  O3  MK1 B 902      11.636  22.475   6.880  1.00 32.66    -0.273 OA
BRANCH  30  33
HETATM   33  C22 MK1 B 902      11.057  23.958   4.584  1.00 29.22     0.147 C 
HETATM   34  C30 MK1 B 902       9.793  24.664   4.028  1.00 31.86    -0.027 A 
HETATM   35  C29 MK1 B 902       8.706  25.230   4.616  1.00 27.70     0.010 A 
HETATM   36  C25 MK1 B 902       9.817  24.712   2.473  1.00 31.29    -0.047 A 
HETATM   37  C28 MK1 B 902       7.693  25.814   3.869  1.00 29.01     0.001 A 
HETATM   38  C27 MK1 B 902       7.733  25.864   2.467  1.00 28.00     0.001 A 
HETATM   39  C26 MK1 B 902       8.804  25.308   1.759  1.00 32.00     0.008 A 
HETATM   40  C24 MK1 B 902      11.135  24.040   2.179  1.00 32.05     0.073 C 
HETATM   41  C23 MK1 B 902      12.015  24.031   3.407  1.00 28.82     0.149 C 
BRANCH  41  42
HETATM   42  O4  MK1 B 902      12.852  25.173   3.524  1.00 28.32    -0.393 OA
HETATM   43  H4  MK1 B 902      13.023  25.544   2.666  1.00  0.00     0.210 HD
ENDBRANCH  41  42
ENDBRANCH  30  33
ENDBRANCH  28  29
BRANCH  28  44
HETATM   44  C14 MK1 B 902      12.490  25.728   8.119  1.00 28.67     0.052 C 
BRANCH  44  45
HETATM   45  C15 MK1 B 902      11.025  25.879   8.304  1.00 26.89    -0.057 A 
HETATM   46  C16 MK1 B 902      10.273  26.828   7.608  1.00 29.22     0.007 A 
HETATM   47  C17 MK1 B 902       8.912  26.959   7.840  1.00 29.22     0.001 A 
HETATM   48  C18 MK1 B 902       8.307  26.125   8.782  1.00 30.97     0.000 A 
HETATM   49  C19 MK1 B 902       9.056  25.167   9.476  1.00 29.25     0.001 A 
HETATM   50  C20 MK1 B 902      10.424  25.047   9.232  1.00 29.96     0.007 A 
ENDBRANCH  44  45
ENDBRANCH  28  44
ENDBRANCH  27  28
ENDBRANCH  24  27
ENDBRANCH  23  24
ENDBRANCH   4  23
TORSDOF 14
ENDMDL
MODEL 16
REMARK VINA RESULT:      -9.0      1.517      2.270
REMARK  14 active torsions:
REMARK  status: ('A' for Active; 'I' for Inactive)
REMARK    1  A    between atoms: N1_1  and  C31_43 
REMARK    2  A    between atoms: C2_3  and  C3_4 
REMARK       I    between atoms: C3_4  and  N2_6 
REMARK    3  A    between atoms: N2_6  and  C4_8 
REMARK    4  A    between atoms: N3_12  and  C10_15 
REMARK    5  A    between atoms: C10_15  and  C11_16 
REMARK    6  A    between atoms: C11_16  and  O2_17 
REMARK    7  A    between atoms: C11_16  and  C12_19 
REMARK    8  A    between atoms: C12_19  and  C13_20 
REMARK    9  A    between atoms: C13_20  and  C21_28 
REMARK   10  A    between atoms: C13_20  and  C14_21 
REMARK   11  A    between atoms: C14_21  and  C15_22 
REMARK       I    between atoms: C21_28  and  N4_30 
REMARK   12  A    between atoms: N4_30  and  C22_32 
REMARK   13  A    between atoms: C23_33  and  O4_34 
REMARK   14  A    between atoms: C31_43  and  C32_44 
ROOT
HETATM    1  N1  MK1 B 902      11.744  24.675   3.932  1.00 28.25     0.096 N 
HETATM    2  C1  MK1 B 902      10.984  25.066   5.150  1.00 30.30     0.307 C 
HETATM    3  C2  MK1 B 902      11.674  25.700   6.341  1.00 27.27     0.200 C 
HETATM    4  N3  MK1 B 902      12.693  24.651   6.697  1.00 28.91    -0.395 N 
HETATM    5  C8  MK1 B 902      13.420  23.957   5.604  1.00 26.24     0.148 C 
HETATM    6  C9  MK1 B 902      12.667  23.702   4.314  1.00 27.47     0.292 C 
ENDROOT
BRANCH   1   7
HETATM    7  C31 MK1 B 902      10.967  24.347   2.731  1.00 36.25     0.312 C 
BRANCH   7   8
HETATM    8  C32 MK1 B 902       9.454  24.108   2.799  1.00 42.75    -0.015 A 
HETATM    9  C36 MK1 B 902       8.643  24.923   2.039  1.00 44.71     0.011 A 
HETATM   10  C35 MK1 B 902       7.267  24.724   2.112  1.00 49.34     0.018 A 
HETATM   11  C34 MK1 B 902       6.750  23.724   2.941  1.00 50.60     0.087 A 
HETATM   12  N5  MK1 B 902       7.497  22.859   3.739  1.00 51.38    -0.375 N 
HETATM   13  C33 MK1 B 902       8.871  23.123   3.609  1.00 47.41     0.096 A 
HETATM   14  H5  MK1 B 902       7.101  22.134   4.337  1.00  0.00     0.164 HD
ENDBRANCH   7   8
ENDBRANCH   1   7
BRANCH   3  15
HETATM   15  C3  MK1 B 902      10.651  25.918   7.422  1.00 28.85     0.242 C 
HETATM   16  O1  MK1 B 902      10.575  25.144   8.367  1.00 29.59    -0.271 OA
HETATM   17  N2  MK1 B 902       9.851  26.958   7.286  1.00 22.29    -0.351 N 
HETATM   18  H2  MK1 B 902       9.973  27.483   6.420  1.00  0.00     0.163 HD
BRANCH  17  19
HETATM   19  C4  MK1 B 902       8.840  27.466   8.158  1.00 23.47     0.022 C 
HETATM   20  C7  MK1 B 902       7.949  26.430   8.690  1.00 22.75     0.037 C 
HETATM   21  C5  MK1 B 902       7.924  28.365   7.308  1.00 27.66     0.037 C 
HETATM   22  C6  MK1 B 902       9.350  28.177   9.234  1.00 21.71     0.037 C 
ENDBRANCH  17  19
ENDBRANCH   3  15
BRANCH   4  23
HETATM   23  C10 MK1 B 902      13.624  24.956   7.765  1.00 20.86     0.149 C 
BRANCH  23  24
HETATM   24  C11 MK1 B 902      14.410  23.747   8.274  1.00 21.68     0.136 C 
BRANCH  24  25
HETATM   25  O2  MK1 B 902      13.507  22.798   7.793  1.00 15.87    -0.394 OA
HETATM   26  H2  MK1 B 902      13.787  21.944   8.101  1.00  0.00     0.210 HD
ENDBRANCH  24  25
BRANCH  24  27
HETATM   27  C12 MK1 B 902      15.816  23.360   7.780  1.00 21.49     0.047 C 
BRANCH  27  28
HETATM   28  C13 MK1 B 902      16.410  21.984   8.113  1.00 26.89     0.084 C 
BRANCH  28  29
HETATM   29  C21 MK1 B 902      16.025  20.929   7.083  1.00 29.35     0.222 C 
HETATM   30  N4  MK1 B 902      17.033  20.438   6.366  1.00 31.19    -0.350 N 
HETATM   31  H4  MK1 B 902      17.926  20.931   6.359  1.00  0.00     0.163 HD
HETATM   32  O3  MK1 B 902      14.864  20.499   7.023  1.00 32.66    -0.273 OA
BRANCH  30  33
HETATM   33  C22 MK1 B 902      16.892  19.216   5.593  1.00 29.22     0.147 C 
HETATM   34  C30 MK1 B 902      16.292  19.311   4.166  1.00 31.86    -0.027 A 
HETATM   35  C29 MK1 B 902      15.302  20.066   3.620  1.00 27.70     0.010 A 
HETATM   36  C25 MK1 B 902      16.998  18.324   3.194  1.00 31.29    -0.047 A 
HETATM   37  C28 MK1 B 902      14.957  19.957   2.279  1.00 29.01     0.001 A 
HETATM   38  C27 MK1 B 902      15.611  19.072   1.409  1.00 28.00     0.001 A 
HETATM   39  C26 MK1 B 902      16.642  18.245   1.868  1.00 32.00     0.008 A 
HETATM   40  C24 MK1 B 902      18.022  17.695   4.107  1.00 32.05     0.073 C 
HETATM   41  C23 MK1 B 902      18.232  18.546   5.338  1.00 28.82     0.149 C 
BRANCH  41  42
HETATM   42  O4  MK1 B 902      19.252  19.524   5.196  1.00 28.32    -0.393 OA
HETATM   43  H4  MK1 B 902      19.037  20.124   4.491  1.00  0.00     0.210 HD
ENDBRANCH  41  42
ENDBRANCH  30  33
ENDBRANCH  28  29
BRANCH  28  44
HETATM   44  C14 MK1 B 902      15.992  21.491   9.509  1.00 28.67     0.052 C 
BRANCH  44  45
HETATM   45  C15 MK1 B 902      16.832  20.366   9.990  1.00 26.89    -0.057 A 
HETATM   46  C16 MK1 B 902      18.228  20.417   9.992  1.00 29.22     0.007 A 
HETATM   47  C17 MK1 B 902      18.974  19.328  10.416  1.00 29.22     0.001 A 
HETATM   48  C18 MK1 B 902      18.305  18.178  10.839  1.00 30.97     0.000 A 
HETATM   49  C19 MK1 B 902      16.906  18.125  10.846  1.00 29.25     0.001 A 
HETATM   50  C20 MK1 B 902      16.169  19.229  10.418  1.00 29.96     0.007 A 
ENDBRANCH  44  45
ENDBRANCH  28  44
ENDBRANCH  27  28
ENDBRANCH  24  27
ENDBRANCH  23  24
ENDBRANCH   4  23
TORSDOF 14
ENDMDL
MODEL 17
REMARK VINA RESULT:      -8.7      3.812     10.671
REMARK  14 active torsions:
REMARK  status: ('A' for Active; 'I' for Inactive)
REMARK    1  A    between atoms: N1_1  and  C31_43 
REMARK    2  A    between atoms: C2_3  and  C3_4 
REMARK       I    between atoms: C3_4  and  N2_6 
REMARK    3  A    between atoms: N2_6  and  C4_8 
REMARK    4  A    between atoms: N3_12  and  C10_15 
REMARK    5  A    between atoms: C10_15  and  C11_16 
REMARK    6  A    between atoms: C11_16  and  O2_17 
REMARK    7  A    between atoms: C11_16  and  C12_19 
REMARK    8  A    between atoms: C12_19  and  C13_20 
REMARK    9  A    between atoms: C13_20  and  C21_28 
REMARK   10  A    between atoms: C13_20  and  C14_21 
REMARK   11  A    between atoms: C14_21  and  C15_22 
REMARK       I    between atoms: C21_28  and  N4_30 
REMARK   12  A    between atoms: N4_30  and  C22_32 
REMARK   13  A    between atoms: C23_33  and  O4_34 
REMARK   14  A    between atoms: C31_43  and  C32_44 
ROOT
HETATM    1  N1  MK1 B 902      16.794  16.484  11.848  1.00 28.25     0.096 N 
HETATM    2  C1  MK1 B 902      17.796  16.065  10.832  1.00 30.30     0.307 C 
HETATM    3  C2  MK1 B 902      18.819  17.040  10.283  1.00 27.27     0.200 C 
HETATM    4  N3  MK1 B 902      17.937  18.116   9.710  1.00 28.91    -0.395 N 
HETATM    5  C8  MK1 B 902      16.731  18.536  10.467  1.00 26.24     0.148 C 
HETATM    6  C9  MK1 B 902      16.002  17.475  11.267  1.00 27.47     0.292 C 
ENDROOT
BRANCH   1   7
HETATM    7  C31 MK1 B 902      16.045  15.423  12.532  1.00 36.25     0.312 C 
BRANCH   7   8
HETATM    8  C32 MK1 B 902      14.737  15.719  13.274  1.00 42.75    -0.015 A 
HETATM    9  C36 MK1 B 902      14.819  16.043  14.611  1.00 44.71     0.011 A 
HETATM   10  C35 MK1 B 902      13.632  16.294  15.296  1.00 49.34     0.018 A 
HETATM   11  C34 MK1 B 902      12.409  16.209  14.624  1.00 50.60     0.087 A 
HETATM   12  N5  MK1 B 902      12.238  15.889  13.278  1.00 51.38    -0.375 N 
HETATM   13  C33 MK1 B 902      13.477  15.652  12.661  1.00 47.41     0.096 A 
HETATM   14  H5  MK1 B 902      11.336  15.834  12.805  1.00  0.00     0.164 HD
ENDBRANCH   7   8
ENDBRANCH   1   7
BRANCH   3  15
HETATM   15  C3  MK1 B 902      19.638  16.331   9.240  1.00 28.85     0.242 C 
HETATM   16  O1  MK1 B 902      20.847  16.204   9.384  1.00 29.59    -0.271 OA
HETATM   17  N2  MK1 B 902      18.996  15.878   8.181  1.00 22.29    -0.351 N 
HETATM   18  H2  MK1 B 902      18.002  16.108   8.152  1.00  0.00     0.163 HD
BRANCH  17  19
HETATM   19  C4  MK1 B 902      19.467  15.116   7.069  1.00 23.47     0.022 C 
HETATM   20  C7  MK1 B 902      20.809  15.503   6.621  1.00 22.75     0.037 C 
HETATM   21  C5  MK1 B 902      18.551  15.446   5.877  1.00 27.66     0.037 C 
HETATM   22  C6  MK1 B 902      19.479  13.750   7.304  1.00 21.71     0.037 C 
ENDBRANCH  17  19
ENDBRANCH   3  15
BRANCH   4  23
HETATM   23  C10 MK1 B 902      18.585  19.292   9.163  1.00 20.86     0.149 C 
BRANCH  23  24
HETATM   24  C11 MK1 B 902      18.014  19.753   7.821  1.00 21.68     0.136 C 
BRANCH  24  25
HETATM   25  O2  MK1 B 902      18.245  18.543   7.163  1.00 15.87    -0.394 OA
HETATM   26  H2  MK1 B 902      17.495  18.362   6.609  1.00  0.00     0.210 HD
ENDBRANCH  24  25
BRANCH  24  27
HETATM   27  C12 MK1 B 902      16.542  20.143   7.596  1.00 21.49     0.047 C 
BRANCH  27  28
HETATM   28  C13 MK1 B 902      16.041  20.531   6.197  1.00 26.89     0.084 C 
BRANCH  28  29
HETATM   29  C21 MK1 B 902      15.271  21.846   6.208  1.00 29.35     0.222 C 
HETATM   30  N4  MK1 B 902      14.099  21.826   5.579  1.00 31.19    -0.350 N 
HETATM   31  H4  MK1 B 902      13.888  21.057   4.943  1.00  0.00     0.163 HD
HETATM   32  O3  MK1 B 902      15.684  22.814   6.865  1.00 32.66    -0.273 OA
BRANCH  30  33
HETATM   33  C22 MK1 B 902      13.112  22.874   5.776  1.00 29.22     0.147 C 
HETATM   34  C30 MK1 B 902      12.104  23.163   4.633  1.00 31.86    -0.027 A 
HETATM   35  C29 MK1 B 902      12.211  23.173   3.278  1.00 27.70     0.010 A 
HETATM   36  C25 MK1 B 902      10.697  23.504   5.200  1.00 31.29    -0.047 A 
HETATM   37  C28 MK1 B 902      11.125  23.467   2.463  1.00 29.01     0.001 A 
HETATM   38  C27 MK1 B 902       9.857  23.759   2.986  1.00 28.00     0.001 A 
HETATM   39  C26 MK1 B 902       9.637  23.780   4.368  1.00 32.00     0.008 A 
HETATM   40  C24 MK1 B 902      10.938  23.374   6.683  1.00 32.05     0.073 C 
HETATM   41  C23 MK1 B 902      12.195  22.579   6.951  1.00 28.82     0.149 C 
BRANCH  41  42
HETATM   42  O4  MK1 B 902      11.978  21.180   7.067  1.00 28.32    -0.393 OA
HETATM   43  H4  MK1 B 902      11.410  20.877   6.368  1.00  0.00     0.210 HD
ENDBRANCH  41  42
ENDBRANCH  30  33
ENDBRANCH  28  29
BRANCH  28  44
HETATM   44  C14 MK1 B 902      15.153  19.440   5.573  1.00 28.67     0.052 C 
BRANCH  44  45
HETATM   45  C15 MK1 B 902      15.656  18.985   4.253  1.00 26.89    -0.057 A 
HETATM   46  C16 MK1 B 902      15.229  19.550   3.049  1.00 29.22     0.007 A 
HETATM   47  C17 MK1 B 902      15.698  19.068   1.836  1.00 29.22     0.001 A 
HETATM   48  C18 MK1 B 902      16.605  18.006   1.840  1.00 30.97     0.000 A 
HETATM   49  C19 MK1 B 902      17.042  17.442   3.045  1.00 29.25     0.001 A 
HETATM   50  C20 MK1 B 902      16.562  17.938   4.257  1.00 29.96     0.007 A 
ENDBRANCH  44  45
ENDBRANCH  28  44
ENDBRANCH  27  28
ENDBRANCH  24  27
ENDBRANCH  23  24
ENDBRANCH   4  23
TORSDOF 14
ENDMDL
